
OS:Version,
  {6bf106ff-5ff4-4a7b-aa96-3c36ebccca4a}, !- Handle
  2.9.0;                                  !- Version Identifier

OS:Building,
  {6edb2e16-f540-4f19-811a-afa6bf8a482d}, !- Handle
  Building 1,                             !- Name
  ,                                       !- Building Sector Type
  225,                                    !- North Axis {deg}
  ,                                       !- Nominal Floor to Floor Height {m}
  ,                                       !- Space Type Name
  ,                                       !- Default Construction Set Name
  ,                                       !- Default Schedule Set Name
  4,                                      !- Standards Number of Stories
  3,                                      !- Standards Number of Above Ground Stories
  ,                                       !- Standards Template
  multifamily,                            !- Standards Building Type
  9;                                      !- Standards Number of Living Units

OS:Facility,
  {0e9688e8-e32e-4e9d-8ab9-06aefc005d9a}; !- Handle

OS:Site,
  {4ca886d4-3f82-4163-8900-e05d1824a103}, !- Handle
  Boston Logan IntL Arpt_MA_USA,          !- Name
  42.37,                                  !- Latitude {deg}
  -71.02,                                 !- Longitude {deg}
  -5,                                     !- Time Zone {hr}
  6,                                      !- Elevation {m}
  Suburbs;                                !- Terrain

OS:SimulationControl,
  {b909198d-f7e8-4015-8a2f-9c1a2857371e}; !- Handle

OS:Sizing:Parameters,
  {6572df1d-dcc9-4334-ad1a-8a236e123401}, !- Handle
  1.25,                                   !- Heating Sizing Factor
  1.15;                                   !- Cooling Sizing Factor

OS:Timestep,
  {0d40e308-8442-418e-b75d-49b89f4da93c}, !- Handle
  6;                                      !- Number of Timesteps per Hour

OS:ShadowCalculation,
  {b751f1d5-0f8f-4a42-9ce9-f5f86b6473c9}, !- Handle
  20,                                     !- Calculation Frequency
  15000;                                  !- Maximum Figures in Shadow Overlap Calculations

OS:HeatBalanceAlgorithm,
  {c13ccf4a-3f0e-4c72-8b38-608043e3423e}, !- Handle
  ConductionTransferFunction,             !- Algorithm
  200;                                    !- Surface Temperature Upper Limit {C}

OS:RunPeriod,
  {11c05211-e5ae-4cd6-a599-ee96762a4821}, !- Handle
  Run Period 1,                           !- Name
  1,                                      !- Begin Month
  1,                                      !- Begin Day of Month
  12,                                     !- End Month
  31,                                     !- End Day of Month
  ,                                       !- Use Weather File Holidays and Special Days
  ,                                       !- Use Weather File Daylight Saving Period
  ,                                       !- Apply Weekend Holiday Rule
  ,                                       !- Use Weather File Rain Indicators
  ,                                       !- Use Weather File Snow Indicators
  ;                                       !- Number of Times Runperiod to be Repeated

OS:LifeCycleCost:Parameters,
  {bf998ef5-7eed-42de-93de-ea98e7ccdd31}, !- Handle
  ,                                       !- Analysis Type
  ,                                       !- Discounting Convention
  ,                                       !- Inflation Approach
  ,                                       !- Real Discount Rate
  ,                                       !- Nominal Discount Rate
  ,                                       !- Inflation
  ,                                       !- Base Date Month
  ,                                       !- Base Date Year
  ,                                       !- Service Date Month
  ,                                       !- Service Date Year
  ;                                       !- Length of Study Period in Years

OS:WeatherFile,
  {71cf6128-6210-4aa1-a8de-dafb426b8968}, !- Handle
  Boston Logan IntL Arpt,                 !- City
  MA,                                     !- State Province Region
  USA,                                    !- Country
  TMY3,                                   !- Data Source
  725090,                                 !- WMO Number
  42.37,                                  !- Latitude {deg}
  -71.02,                                 !- Longitude {deg}
  -5,                                     !- Time Zone {hr}
  6,                                      !- Elevation {m}
  file:files/USA_MA_Boston-Logan.Intl.AP.725090_TMY3.epw, !- Url
  B65824C3;                               !- Checksum

OS:AdditionalProperties,
  {4b0e2615-9b81-4bc4-8c5b-560ca7dff0ec}, !- Handle
  {71cf6128-6210-4aa1-a8de-dafb426b8968}, !- Object Name
  EPWHeaderCity,                          !- Feature Name 1
  String,                                 !- Feature Data Type 1
  Boston Logan IntL Arpt,                 !- Feature Value 1
  EPWHeaderState,                         !- Feature Name 2
  String,                                 !- Feature Data Type 2
  MA,                                     !- Feature Value 2
  EPWHeaderCountry,                       !- Feature Name 3
  String,                                 !- Feature Data Type 3
  USA,                                    !- Feature Value 3
  EPWHeaderDataSource,                    !- Feature Name 4
  String,                                 !- Feature Data Type 4
  TMY3,                                   !- Feature Value 4
  EPWHeaderStation,                       !- Feature Name 5
  String,                                 !- Feature Data Type 5
  725090,                                 !- Feature Value 5
  EPWHeaderLatitude,                      !- Feature Name 6
  Double,                                 !- Feature Data Type 6
  42.369999999999997,                     !- Feature Value 6
  EPWHeaderLongitude,                     !- Feature Name 7
  Double,                                 !- Feature Data Type 7
  -71.019999999999996,                    !- Feature Value 7
  EPWHeaderTimezone,                      !- Feature Name 8
  Double,                                 !- Feature Data Type 8
  -5,                                     !- Feature Value 8
  EPWHeaderAltitude,                      !- Feature Name 9
  Double,                                 !- Feature Data Type 9
  19.685039370078741,                     !- Feature Value 9
  EPWHeaderLocalPressure,                 !- Feature Name 10
  Double,                                 !- Feature Data Type 10
  0.99927585287235943,                    !- Feature Value 10
  EPWHeaderRecordsPerHour,                !- Feature Name 11
  Double,                                 !- Feature Data Type 11
  1,                                      !- Feature Value 11
  EPWDataAnnualAvgDrybulb,                !- Feature Name 12
  Double,                                 !- Feature Data Type 12
  51.079239726027438,                     !- Feature Value 12
  EPWDataAnnualMinDrybulb,                !- Feature Name 13
  Double,                                 !- Feature Data Type 13
  -4,                                     !- Feature Value 13
  EPWDataAnnualMaxDrybulb,                !- Feature Name 14
  Double,                                 !- Feature Data Type 14
  98.960000000000008,                     !- Feature Value 14
  EPWDataCDD50F,                          !- Feature Name 15
  Double,                                 !- Feature Data Type 15
  2872.5375000000004,                     !- Feature Value 15
  EPWDataCDD65F,                          !- Feature Name 16
  Double,                                 !- Feature Data Type 16
  694.41000000000008,                     !- Feature Value 16
  EPWDataHDD50F,                          !- Feature Name 17
  Double,                                 !- Feature Data Type 17
  2478.6150000000007,                     !- Feature Value 17
  EPWDataHDD65F,                          !- Feature Name 18
  Double,                                 !- Feature Data Type 18
  5775.4875000000029,                     !- Feature Value 18
  EPWDataAnnualAvgWindspeed,              !- Feature Name 19
  Double,                                 !- Feature Data Type 19
  5.4847031963464152,                     !- Feature Value 19
  EPWDataMonthlyAvgDrybulbs,              !- Feature Name 20
  String,                                 !- Feature Data Type 20
  26.63362903225807&#4431.063035714285718&#4438.77129032258065&#4447.41249999999998&#4458.801129032258004&#4465.96600000000001&#4474.0812903225806&#4471.02443548387099&#4464.58874999999998&#4454.04443548387097&#4443.273249999999976&#4435.9, !- Feature Value 20
  EPWDataGroundMonthlyTemps,              !- Feature Name 21
  String,                                 !- Feature Data Type 21
  42.50299098785848&#4438.87407805579426&#4438.58346169413858&#4440.30556630479151&#4447.218856684436844&#4454.09994202472154&#4460.065475260311075&#4463.84449384575731&#4464.16554223126462&#4461.09194577833995&#4455.278537142710604&#4448.608535473512575, !- Feature Value 21
  EPWDataWSF,                             !- Feature Name 22
  Double,                                 !- Feature Data Type 22
  0.66000000000000003,                    !- Feature Value 22
  EPWDataMonthlyAvgDailyHighDrybulbs,     !- Feature Name 23
  String,                                 !- Feature Data Type 23
  33.480645161290326&#4436.32&#4446.016774193548386&#4454.52400000000001&#4465.96774193548387&#4474.39599999999999&#4481.95870967741934&#4478.64903225806452&#4473.02799999999999&#4461.35741935483871&#4449.483999999999995&#4442.248387096774195, !- Feature Value 23
  EPWDataMonthlyAvgDailyLowDrybulbs,      !- Feature Name 24
  String,                                 !- Feature Data Type 24
  18.238709677419354&#4425.185714285714287&#4431.796774193548387&#4440.46&#4452.56645161290323&#4458.220000000000006&#4466.76322580645163&#4464.30129032258064&#4456.474000000000004&#4446.19096774193548&#4437.37&#4429.543870967741935, !- Feature Value 24
  EPWDesignHeatingDrybulb,                !- Feature Name 25
  Double,                                 !- Feature Data Type 25
  12.379999999999999,                     !- Feature Value 25
  EPWDesignHeatingWindspeed,              !- Feature Name 26
  Double,                                 !- Feature Data Type 26
  12.6,                                   !- Feature Value 26
  EPWDesignCoolingDrybulb,                !- Feature Name 27
  Double,                                 !- Feature Data Type 27
  87.620000000000005,                     !- Feature Value 27
  EPWDesignCoolingWetbulb,                !- Feature Name 28
  Double,                                 !- Feature Data Type 28
  71.960000000000008,                     !- Feature Value 28
  EPWDesignCoolingHumidityRatio,          !- Feature Name 29
  Double,                                 !- Feature Data Type 29
  0.013102768397638163,                   !- Feature Value 29
  EPWDesignCoolingWindspeed,              !- Feature Name 30
  Double,                                 !- Feature Data Type 30
  6.2999999999999998,                     !- Feature Value 30
  EPWDesignDailyTemperatureRange,         !- Feature Name 31
  Double,                                 !- Feature Data Type 31
  15.120000000000001,                     !- Feature Value 31
  EPWDesignDehumidDrybulb,                !- Feature Name 32
  Double,                                 !- Feature Data Type 32
  77.900000000000006,                     !- Feature Value 32
  EPWDesignDehumidHumidityRatio,          !- Feature Name 33
  Double,                                 !- Feature Data Type 33
  0.015865827034356558,                   !- Feature Value 33
  EPWDesignCoolingDirectNormal,           !- Feature Name 34
  Double,                                 !- Feature Data Type 34
  779,                                    !- Feature Value 34
  EPWDesignCoolingDiffuseHorizontal,      !- Feature Name 35
  Double,                                 !- Feature Data Type 35
  271;                                    !- Feature Value 35

OS:YearDescription,
  {25284c08-95e8-4196-b757-ba6949b638aa}; !- Handle

OS:ClimateZones,
  {c28a9b2d-8f34-4749-882c-8f48beb2a9f5}, !- Handle
  ,                                       !- Active Institution
  ,                                       !- Active Year
  ,                                       !- Climate Zone Institution Name 1
  ,                                       !- Climate Zone Document Name 1
  ,                                       !- Climate Zone Document Year 1
  ,                                       !- Climate Zone Value 1
  Building America,                       !- Climate Zone Institution Name 2
  ,                                       !- Climate Zone Document Name 2
  0,                                      !- Climate Zone Document Year 2
  Cold,                                   !- Climate Zone Value 2
  CEC,                                    !- Climate Zone Institution Name 3
  California Climate Zone Descriptions,   !- Climate Zone Document Name 3
  1995,                                   !- Climate Zone Document Year 3
  ;                                       !- Climate Zone Value 3

OS:Site:WaterMainsTemperature,
  {70ca3c3e-fe33-4ad8-8ea5-e3201a3590d0}, !- Handle
  Correlation,                            !- Calculation Method
  ,                                       !- Temperature Schedule Name
  10.5995776255708,                       !- Annual Average Outdoor Air Temperature {C}
  26.359811827957;                        !- Maximum Difference In Monthly Average Outdoor Air Temperatures {deltaC}

OS:RunPeriodControl:DaylightSavingTime,
  {6bde2f46-82b4-4137-bbb3-06ce50c7143a}, !- Handle
  4/7,                                    !- Start Date
  10/26;                                  !- End Date

OS:Site:GroundTemperature:Deep,
  {36217b8b-5292-457a-b347-e123800f650d}, !- Handle
  10.5995776255708,                       !- January Deep Ground Temperature {C}
  10.5995776255708,                       !- February Deep Ground Temperature {C}
  10.5995776255708,                       !- March Deep Ground Temperature {C}
  10.5995776255708,                       !- April Deep Ground Temperature {C}
  10.5995776255708,                       !- May Deep Ground Temperature {C}
  10.5995776255708,                       !- June Deep Ground Temperature {C}
  10.5995776255708,                       !- July Deep Ground Temperature {C}
  10.5995776255708,                       !- August Deep Ground Temperature {C}
  10.5995776255708,                       !- September Deep Ground Temperature {C}
  10.5995776255708,                       !- October Deep Ground Temperature {C}
  10.5995776255708,                       !- November Deep Ground Temperature {C}
  10.5995776255708;                       !- December Deep Ground Temperature {C}

OS:ThermalZone,
  {e4f1303d-9009-4ba0-8468-5f84fb59cdcb}, !- Handle
  living zone,                            !- Name
  ,                                       !- Multiplier
  ,                                       !- Ceiling Height {m}
  ,                                       !- Volume {m3}
  ,                                       !- Floor Area {m2}
  ,                                       !- Zone Inside Convection Algorithm
  ,                                       !- Zone Outside Convection Algorithm
  ,                                       !- Zone Conditioning Equipment List Name
  {a27bb073-5865-494b-a196-0388ea6943c0}, !- Zone Air Inlet Port List
  {2e9b9d55-4412-4b73-8266-60f2971bd586}, !- Zone Air Exhaust Port List
  {2e973c92-959f-451d-9439-7bd33bb54278}, !- Zone Air Node Name
  {b22d8977-3b77-4dab-a7d6-1ce33358d6e2}, !- Zone Return Air Port List
  ,                                       !- Primary Daylighting Control Name
  ,                                       !- Fraction of Zone Controlled by Primary Daylighting Control
  ,                                       !- Secondary Daylighting Control Name
  ,                                       !- Fraction of Zone Controlled by Secondary Daylighting Control
  ,                                       !- Illuminance Map Name
  {23573c31-4dcf-402d-9dd6-d52fe6846fed}, !- Group Rendering Name
  {e9231f22-6370-4a9b-a6ae-57b26fd14870}, !- Thermostat Name
  No;                                     !- Use Ideal Air Loads

OS:Node,
  {26d8633c-2a45-4a27-857b-754d47e39d86}, !- Handle
  Node 1,                                 !- Name
  {2e973c92-959f-451d-9439-7bd33bb54278}, !- Inlet Port
  ;                                       !- Outlet Port

OS:Connection,
  {2e973c92-959f-451d-9439-7bd33bb54278}, !- Handle
  {62e2f0e9-0ad9-42ff-8a32-81fe72d6b4c6}, !- Name
  {e4f1303d-9009-4ba0-8468-5f84fb59cdcb}, !- Source Object
  11,                                     !- Outlet Port
  {26d8633c-2a45-4a27-857b-754d47e39d86}, !- Target Object
  2;                                      !- Inlet Port

OS:PortList,
  {a27bb073-5865-494b-a196-0388ea6943c0}, !- Handle
  {0a312046-1a3f-43ce-bb51-571fcb20b81b}, !- Name
  {e4f1303d-9009-4ba0-8468-5f84fb59cdcb}, !- HVAC Component
  {c8af9644-ccf4-496e-8899-e63794283769}; !- Port 1

OS:PortList,
  {2e9b9d55-4412-4b73-8266-60f2971bd586}, !- Handle
  {95c6b6e1-73a5-4336-ab3f-12c6e7427ced}, !- Name
  {e4f1303d-9009-4ba0-8468-5f84fb59cdcb}; !- HVAC Component

OS:PortList,
  {b22d8977-3b77-4dab-a7d6-1ce33358d6e2}, !- Handle
  {5de14a00-10be-4bc8-acf4-da8b0af1a7a9}, !- Name
  {e4f1303d-9009-4ba0-8468-5f84fb59cdcb}, !- HVAC Component
  {5352169a-ee66-4455-933b-ef10c7cd8e04}; !- Port 1

OS:Sizing:Zone,
  {77246865-3bfd-40de-83a6-d609b2f109c4}, !- Handle
  {e4f1303d-9009-4ba0-8468-5f84fb59cdcb}, !- Zone or ZoneList Name
  SupplyAirTemperature,                   !- Zone Cooling Design Supply Air Temperature Input Method
  14,                                     !- Zone Cooling Design Supply Air Temperature {C}
  11.11,                                  !- Zone Cooling Design Supply Air Temperature Difference {deltaC}
  SupplyAirTemperature,                   !- Zone Heating Design Supply Air Temperature Input Method
  40,                                     !- Zone Heating Design Supply Air Temperature {C}
  11.11,                                  !- Zone Heating Design Supply Air Temperature Difference {deltaC}
  0.0085,                                 !- Zone Cooling Design Supply Air Humidity Ratio {kg-H2O/kg-air}
  0.008,                                  !- Zone Heating Design Supply Air Humidity Ratio {kg-H2O/kg-air}
  ,                                       !- Zone Heating Sizing Factor
  ,                                       !- Zone Cooling Sizing Factor
  DesignDay,                              !- Cooling Design Air Flow Method
  ,                                       !- Cooling Design Air Flow Rate {m3/s}
  ,                                       !- Cooling Minimum Air Flow per Zone Floor Area {m3/s-m2}
  ,                                       !- Cooling Minimum Air Flow {m3/s}
  ,                                       !- Cooling Minimum Air Flow Fraction
  DesignDay,                              !- Heating Design Air Flow Method
  ,                                       !- Heating Design Air Flow Rate {m3/s}
  ,                                       !- Heating Maximum Air Flow per Zone Floor Area {m3/s-m2}
  ,                                       !- Heating Maximum Air Flow {m3/s}
  ,                                       !- Heating Maximum Air Flow Fraction
  ,                                       !- Design Zone Air Distribution Effectiveness in Cooling Mode
  ,                                       !- Design Zone Air Distribution Effectiveness in Heating Mode
  No,                                     !- Account for Dedicated Outdoor Air System
  NeutralSupplyAir,                       !- Dedicated Outdoor Air System Control Strategy
  autosize,                               !- Dedicated Outdoor Air Low Setpoint Temperature for Design {C}
  autosize;                               !- Dedicated Outdoor Air High Setpoint Temperature for Design {C}

OS:ZoneHVAC:EquipmentList,
  {6f35d1a8-f1e6-4b00-b793-ae81be258d52}, !- Handle
  Zone HVAC Equipment List 1,             !- Name
  {e4f1303d-9009-4ba0-8468-5f84fb59cdcb}, !- Thermal Zone
  SequentialLoad,                         !- Load Distribution Scheme
  {873b06be-9c10-4725-a47d-0fe97926e8df}, !- Zone Equipment 1
  1,                                      !- Zone Equipment Cooling Sequence 1
  1,                                      !- Zone Equipment Heating or No-Load Sequence 1
  ,                                       !- Zone Equipment Sequential Cooling Fraction Schedule Name 1
  ;                                       !- Zone Equipment Sequential Heating Fraction Schedule Name 1

OS:Space,
  {923fe432-6927-491e-8c65-719c89fb40b3}, !- Handle
  living space,                           !- Name
  {18c1702f-17ac-493f-bf39-4cbe940f807e}, !- Space Type Name
  ,                                       !- Default Construction Set Name
  ,                                       !- Default Schedule Set Name
  ,                                       !- Direction of Relative North {deg}
  ,                                       !- X Origin {m}
  ,                                       !- Y Origin {m}
  ,                                       !- Z Origin {m}
  ,                                       !- Building Story Name
  {e4f1303d-9009-4ba0-8468-5f84fb59cdcb}, !- Thermal Zone Name
  ,                                       !- Part of Total Floor Area
  ,                                       !- Design Specification Outdoor Air Object Name
  {162c2338-5ad7-4653-bc90-a37a8dbc18cd}; !- Building Unit Name

OS:Surface,
  {6bc08d7f-c0b5-4766-bbd8-437f554b5ba3}, !- Handle
  Surface 1,                              !- Name
  Floor,                                  !- Surface Type
  {41c4cf87-3f04-4874-accb-9030432fa822}, !- Construction Name
  {923fe432-6927-491e-8c65-719c89fb40b3}, !- Space Name
  Adiabatic,                              !- Outside Boundary Condition
  ,                                       !- Outside Boundary Condition Object
  NoSun,                                  !- Sun Exposure
  NoWind,                                 !- Wind Exposure
  ,                                       !- View Factor to Ground
  ,                                       !- Number of Vertices
  0, -9.144, 0,                           !- X,Y,Z Vertex 1 {m}
  0, 0, 0,                                !- X,Y,Z Vertex 2 {m}
  5.08, 0, 0,                             !- X,Y,Z Vertex 3 {m}
  5.08, -9.144, 0;                        !- X,Y,Z Vertex 4 {m}

OS:Surface,
  {1bf8b15a-ddd9-4cfe-a5e0-9c6b7276a515}, !- Handle
  Surface 2,                              !- Name
  Wall,                                   !- Surface Type
  {02722909-fc20-4bc8-8494-c919140984ce}, !- Construction Name
  {923fe432-6927-491e-8c65-719c89fb40b3}, !- Space Name
  Outdoors,                               !- Outside Boundary Condition
  ,                                       !- Outside Boundary Condition Object
  SunExposed,                             !- Sun Exposure
  WindExposed,                            !- Wind Exposure
  ,                                       !- View Factor to Ground
  ,                                       !- Number of Vertices
  0, 0, 2.4384,                           !- X,Y,Z Vertex 1 {m}
  0, 0, 0,                                !- X,Y,Z Vertex 2 {m}
  0, -9.144, 0,                           !- X,Y,Z Vertex 3 {m}
  0, -9.144, 2.4384;                      !- X,Y,Z Vertex 4 {m}

OS:Surface,
  {83773bf5-0bd4-48df-acdb-22c78ea2d8ef}, !- Handle
  Surface 3,                              !- Name
  Wall,                                   !- Surface Type
  {02722909-fc20-4bc8-8494-c919140984ce}, !- Construction Name
  {923fe432-6927-491e-8c65-719c89fb40b3}, !- Space Name
  Outdoors,                               !- Outside Boundary Condition
  ,                                       !- Outside Boundary Condition Object
  SunExposed,                             !- Sun Exposure
  WindExposed,                            !- Wind Exposure
  ,                                       !- View Factor to Ground
  ,                                       !- Number of Vertices
  5.08, 0, 2.4384,                        !- X,Y,Z Vertex 1 {m}
  5.08, 0, 0,                             !- X,Y,Z Vertex 2 {m}
  0, 0, 0,                                !- X,Y,Z Vertex 3 {m}
  0, 0, 2.4384;                           !- X,Y,Z Vertex 4 {m}

OS:Surface,
  {6d6b6620-124a-488b-84ed-ce1d7da0eb13}, !- Handle
  Surface 4,                              !- Name
  Wall,                                   !- Surface Type
  {097b2024-6ba0-4a12-b054-0c9942526a12}, !- Construction Name
  {923fe432-6927-491e-8c65-719c89fb40b3}, !- Space Name
  Adiabatic,                              !- Outside Boundary Condition
  ,                                       !- Outside Boundary Condition Object
  NoSun,                                  !- Sun Exposure
  NoWind,                                 !- Wind Exposure
  ,                                       !- View Factor to Ground
  ,                                       !- Number of Vertices
  5.08, -9.144, 2.4384,                   !- X,Y,Z Vertex 1 {m}
  5.08, -9.144, 0,                        !- X,Y,Z Vertex 2 {m}
  5.08, 0, 0,                             !- X,Y,Z Vertex 3 {m}
  5.08, 0, 2.4384;                        !- X,Y,Z Vertex 4 {m}

OS:Surface,
  {180f9407-7b30-4374-bd7d-64b447550b56}, !- Handle
  Surface 5,                              !- Name
  Wall,                                   !- Surface Type
  {02722909-fc20-4bc8-8494-c919140984ce}, !- Construction Name
  {923fe432-6927-491e-8c65-719c89fb40b3}, !- Space Name
  Outdoors,                               !- Outside Boundary Condition
  ,                                       !- Outside Boundary Condition Object
  SunExposed,                             !- Sun Exposure
  WindExposed,                            !- Wind Exposure
  ,                                       !- View Factor to Ground
  ,                                       !- Number of Vertices
  5.08, -9.144, 0,                        !- X,Y,Z Vertex 1 {m}
  5.08, -9.144, 2.4384,                   !- X,Y,Z Vertex 2 {m}
  1.04865714285714, -9.144, 2.4384,       !- X,Y,Z Vertex 3 {m}
  1.04865714285714, -9.144, 0;            !- X,Y,Z Vertex 4 {m}

OS:Surface,
  {a202de11-5e10-4d70-ba54-451d206a1553}, !- Handle
  Surface 6,                              !- Name
  RoofCeiling,                            !- Surface Type
  {8a631033-592b-4f60-acde-e6d576a71e1d}, !- Construction Name
  {923fe432-6927-491e-8c65-719c89fb40b3}, !- Space Name
  Adiabatic,                              !- Outside Boundary Condition
  ,                                       !- Outside Boundary Condition Object
  NoSun,                                  !- Sun Exposure
  NoWind,                                 !- Wind Exposure
  ,                                       !- View Factor to Ground
  ,                                       !- Number of Vertices
  5.08, -9.144, 2.4384,                   !- X,Y,Z Vertex 1 {m}
  5.08, 0, 2.4384,                        !- X,Y,Z Vertex 2 {m}
  0, 0, 2.4384,                           !- X,Y,Z Vertex 3 {m}
  0, -9.144, 2.4384;                      !- X,Y,Z Vertex 4 {m}

OS:SpaceType,
  {18c1702f-17ac-493f-bf39-4cbe940f807e}, !- Handle
  Space Type 1,                           !- Name
  ,                                       !- Default Construction Set Name
  ,                                       !- Default Schedule Set Name
  {f496f4a7-3c2d-4767-a25f-3af9f969fdd9}, !- Group Rendering Name
  ,                                       !- Design Specification Outdoor Air Object Name
  ,                                       !- Standards Template
  ,                                       !- Standards Building Type
  living;                                 !- Standards Space Type

OS:ShadingSurface,
  {ff0d6f53-071b-4e8b-820e-1cf41e5ed7af}, !- Handle
  Corridor shading,                       !- Name
  ,                                       !- Construction Name
  {9c7039fe-7a0b-4c04-8372-01b9b2353ffe}, !- Shading Surface Group Name
  ,                                       !- Transmittance Schedule Name
  ,                                       !- Number of Vertices
  0, -12.192, 2.4384,                     !- X,Y,Z Vertex 1 {m}
  5.08, -12.192, 2.4384,                  !- X,Y,Z Vertex 2 {m}
  5.08, -9.144, 2.4384,                   !- X,Y,Z Vertex 3 {m}
  0, -9.144, 2.4384;                      !- X,Y,Z Vertex 4 {m}

OS:ShadingSurfaceGroup,
  {9c7039fe-7a0b-4c04-8372-01b9b2353ffe}, !- Handle
  Shading Surface Group 1,                !- Name
  Building;                               !- Shading Surface Type

OS:Surface,
  {a4faa805-5729-47de-8784-4fdcde7469dc}, !- Handle
  Surface 7,                              !- Name
  Floor,                                  !- Surface Type
  {7e96ce23-63ee-422c-9abe-993e1afc0a38}, !- Construction Name
  {498a9ce0-72aa-4824-8a6f-ba7520b506e7}, !- Space Name
  Foundation,                             !- Outside Boundary Condition
  {de05a80d-c7cf-457b-9851-523feec21d26}, !- Outside Boundary Condition Object
  NoSun,                                  !- Sun Exposure
  NoWind,                                 !- Wind Exposure
  ,                                       !- View Factor to Ground
  ,                                       !- Number of Vertices
  0, -9.144, -2.4384,                     !- X,Y,Z Vertex 1 {m}
  0, 0, -2.4384,                          !- X,Y,Z Vertex 2 {m}
  5.08, 0, -2.4384,                       !- X,Y,Z Vertex 3 {m}
  5.08, -9.144, -2.4384;                  !- X,Y,Z Vertex 4 {m}
