!- NOTE: Auto-generated from /test/osw_files/MF_2story_UB_FuelBoiler_AC1_FuelTankWH.osw

OS:Version,
  {d38621bb-b299-4c99-8a8d-12d594515184}, !- Handle
  2.9.1;                                  !- Version Identifier

OS:SimulationControl,
  {2cc694b0-2887-4f8c-8725-f249229e06c3}, !- Handle
  ,                                       !- Do Zone Sizing Calculation
  ,                                       !- Do System Sizing Calculation
  ,                                       !- Do Plant Sizing Calculation
  No;                                     !- Run Simulation for Sizing Periods

OS:Timestep,
  {07dbc443-8196-41db-b165-b9a173c460bf}, !- Handle
  6;                                      !- Number of Timesteps per Hour

OS:ShadowCalculation,
  {5fee019b-4b58-4351-8e2c-622c2e462b61}, !- Handle
  20,                                     !- Calculation Frequency
  200;                                    !- Maximum Figures in Shadow Overlap Calculations

OS:SurfaceConvectionAlgorithm:Outside,
  {7684e5f7-bbc0-4612-83c9-eeb6aabcadf5}, !- Handle
  DOE-2;                                  !- Algorithm

OS:SurfaceConvectionAlgorithm:Inside,
  {5aaca682-2555-48cb-aced-21026fceb45d}, !- Handle
  TARP;                                   !- Algorithm

OS:ZoneCapacitanceMultiplier:ResearchSpecial,
  {9a1a6039-d668-4589-9045-c770eb577741}, !- Handle
  3.6,                                    !- Temperature Capacity Multiplier
  15,                                     !- Humidity Capacity Multiplier
  ;                                       !- Carbon Dioxide Capacity Multiplier

OS:RunPeriod,
  {afb9e7be-45dd-4414-bd79-aee329d5dac2}, !- Handle
  Run Period 1,                           !- Name
  1,                                      !- Begin Month
  1,                                      !- Begin Day of Month
  12,                                     !- End Month
  31,                                     !- End Day of Month
  ,                                       !- Use Weather File Holidays and Special Days
  ,                                       !- Use Weather File Daylight Saving Period
  ,                                       !- Apply Weekend Holiday Rule
  ,                                       !- Use Weather File Rain Indicators
  ,                                       !- Use Weather File Snow Indicators
  ;                                       !- Number of Times Runperiod to be Repeated

OS:YearDescription,
  {9b5f10e4-5629-483b-8fab-f4ff7ae99008}, !- Handle
  2007,                                   !- Calendar Year
  ,                                       !- Day of Week for Start Day
  ;                                       !- Is Leap Year

OS:WeatherFile,
  {f7f2e409-689d-4659-a5bf-0c61055ba421}, !- Handle
  Denver Intl Ap,                         !- City
  CO,                                     !- State Province Region
  USA,                                    !- Country
  TMY3,                                   !- Data Source
  725650,                                 !- WMO Number
  39.83,                                  !- Latitude {deg}
  -104.65,                                !- Longitude {deg}
  -7,                                     !- Time Zone {hr}
  1650,                                   !- Elevation {m}
  file:../weather/USA_CO_Denver.Intl.AP.725650_TMY3.epw, !- Url
  E23378AA;                               !- Checksum

OS:AdditionalProperties,
  {cf313d78-7967-491f-9d23-dc30d67ef0a7}, !- Handle
  {f7f2e409-689d-4659-a5bf-0c61055ba421}, !- Object Name
  EPWHeaderCity,                          !- Feature Name 1
  String,                                 !- Feature Data Type 1
  Denver Intl Ap,                         !- Feature Value 1
  EPWHeaderState,                         !- Feature Name 2
  String,                                 !- Feature Data Type 2
  CO,                                     !- Feature Value 2
  EPWHeaderCountry,                       !- Feature Name 3
  String,                                 !- Feature Data Type 3
  USA,                                    !- Feature Value 3
  EPWHeaderDataSource,                    !- Feature Name 4
  String,                                 !- Feature Data Type 4
  TMY3,                                   !- Feature Value 4
  EPWHeaderStation,                       !- Feature Name 5
  String,                                 !- Feature Data Type 5
  725650,                                 !- Feature Value 5
  EPWHeaderLatitude,                      !- Feature Name 6
  Double,                                 !- Feature Data Type 6
  39.829999999999998,                     !- Feature Value 6
  EPWHeaderLongitude,                     !- Feature Name 7
  Double,                                 !- Feature Data Type 7
  -104.65000000000001,                    !- Feature Value 7
  EPWHeaderTimezone,                      !- Feature Name 8
  Double,                                 !- Feature Data Type 8
  -7,                                     !- Feature Value 8
  EPWHeaderAltitude,                      !- Feature Name 9
  Double,                                 !- Feature Data Type 9
  5413.3858267716532,                     !- Feature Value 9
  EPWHeaderLocalPressure,                 !- Feature Name 10
  Double,                                 !- Feature Data Type 10
  0.81937567683596546,                    !- Feature Value 10
  EPWHeaderRecordsPerHour,                !- Feature Name 11
  Double,                                 !- Feature Data Type 11
  0,                                      !- Feature Value 11
  EPWDataAnnualAvgDrybulb,                !- Feature Name 12
  Double,                                 !- Feature Data Type 12
  51.575616438356228,                     !- Feature Value 12
  EPWDataAnnualMinDrybulb,                !- Feature Name 13
  Double,                                 !- Feature Data Type 13
  -2.9200000000000017,                    !- Feature Value 13
  EPWDataAnnualMaxDrybulb,                !- Feature Name 14
  Double,                                 !- Feature Data Type 14
  104,                                    !- Feature Value 14
  EPWDataCDD50F,                          !- Feature Name 15
  Double,                                 !- Feature Data Type 15
  3072.2925000000005,                     !- Feature Value 15
  EPWDataCDD65F,                          !- Feature Name 16
  Double,                                 !- Feature Data Type 16
  883.62000000000035,                     !- Feature Value 16
  EPWDataHDD50F,                          !- Feature Name 17
  Double,                                 !- Feature Data Type 17
  2497.1925000000001,                     !- Feature Value 17
  EPWDataHDD65F,                          !- Feature Name 18
  Double,                                 !- Feature Data Type 18
  5783.5200000000013,                     !- Feature Value 18
  EPWDataAnnualAvgWindspeed,              !- Feature Name 19
  Double,                                 !- Feature Data Type 19
  3.9165296803649667,                     !- Feature Value 19
  EPWDataMonthlyAvgDrybulbs,              !- Feature Name 20
  String,                                 !- Feature Data Type 20
  33.4191935483871&#4431.90142857142857&#4443.02620967741937&#4442.48624999999999&#4459.877741935483854&#4473.57574999999997&#4472.07975806451608&#4472.70008064516134&#4466.49200000000006&#4450.079112903225806&#4437.218250000000005&#4434.582177419354835, !- Feature Value 20
  EPWDataGroundMonthlyTemps,              !- Feature Name 21
  String,                                 !- Feature Data Type 21
  44.08306285945173&#4440.89570904991865&#4440.64045432632048&#4442.153016571250646&#4448.225111118704206&#4454.268919273837525&#4459.508577937551024&#4462.82777283423508&#4463.10975667174995&#4460.41014950381947&#4455.304105212311526&#4449.445696474514364, !- Feature Value 21
  EPWDataWSF,                             !- Feature Name 22
  Double,                                 !- Feature Data Type 22
  0.58999999999999997,                    !- Feature Value 22
  EPWDataMonthlyAvgDailyHighDrybulbs,     !- Feature Name 23
  String,                                 !- Feature Data Type 23
  47.41032258064516&#4446.58642857142857&#4455.15032258064517&#4453.708&#4472.80193548387098&#4488.67600000000002&#4486.1858064516129&#4485.87225806451613&#4482.082&#4463.18064516129033&#4448.73400000000001&#4448.87935483870968, !- Feature Value 23
  EPWDataMonthlyAvgDailyLowDrybulbs,      !- Feature Name 24
  String,                                 !- Feature Data Type 24
  19.347741935483874&#4419.856428571428573&#4430.316129032258065&#4431.112&#4447.41612903225806&#4457.901999999999994&#4459.063870967741934&#4460.956774193548384&#4452.352000000000004&#4438.41612903225806&#4427.002000000000002&#4423.02903225806451, !- Feature Value 24
  EPWDesignHeatingDrybulb,                !- Feature Name 25
  Double,                                 !- Feature Data Type 25
  12.02,                                  !- Feature Value 25
  EPWDesignHeatingWindspeed,              !- Feature Name 26
  Double,                                 !- Feature Data Type 26
  2.8062500000000004,                     !- Feature Value 26
  EPWDesignCoolingDrybulb,                !- Feature Name 27
  Double,                                 !- Feature Data Type 27
  91.939999999999998,                     !- Feature Value 27
  EPWDesignCoolingWetbulb,                !- Feature Name 28
  Double,                                 !- Feature Data Type 28
  59.95131430195849,                      !- Feature Value 28
  EPWDesignCoolingHumidityRatio,          !- Feature Name 29
  Double,                                 !- Feature Data Type 29
  0.0059161086834698092,                  !- Feature Value 29
  EPWDesignCoolingWindspeed,              !- Feature Name 30
  Double,                                 !- Feature Data Type 30
  3.7999999999999989,                     !- Feature Value 30
  EPWDesignDailyTemperatureRange,         !- Feature Name 31
  Double,                                 !- Feature Data Type 31
  24.915483870967748,                     !- Feature Value 31
  EPWDesignDehumidDrybulb,                !- Feature Name 32
  Double,                                 !- Feature Data Type 32
  67.996785714285721,                     !- Feature Value 32
  EPWDesignDehumidHumidityRatio,          !- Feature Name 33
  Double,                                 !- Feature Data Type 33
  0.012133744170488724,                   !- Feature Value 33
  EPWDesignCoolingDirectNormal,           !- Feature Name 34
  Double,                                 !- Feature Data Type 34
  985,                                    !- Feature Value 34
  EPWDesignCoolingDiffuseHorizontal,      !- Feature Name 35
  Double,                                 !- Feature Data Type 35
  84;                                     !- Feature Value 35

OS:Site,
  {f02b53f2-7a73-46a6-826d-5b65c61218e0}, !- Handle
  Denver Intl Ap_CO_USA,                  !- Name
  39.83,                                  !- Latitude {deg}
  -104.65,                                !- Longitude {deg}
  -7,                                     !- Time Zone {hr}
  1650,                                   !- Elevation {m}
  Suburbs;                                !- Terrain

OS:ClimateZones,
  {ab8cb811-8196-4e49-8469-0a410ed8e068}, !- Handle
  ,                                       !- Active Institution
  ,                                       !- Active Year
  ,                                       !- Climate Zone Institution Name 1
  ,                                       !- Climate Zone Document Name 1
  ,                                       !- Climate Zone Document Year 1
  ,                                       !- Climate Zone Value 1
  Building America,                       !- Climate Zone Institution Name 2
  ,                                       !- Climate Zone Document Name 2
  0,                                      !- Climate Zone Document Year 2
  Cold;                                   !- Climate Zone Value 2

OS:Site:WaterMainsTemperature,
  {35f7de68-6079-438a-9acc-c664de039b7a}, !- Handle
  Correlation,                            !- Calculation Method
  ,                                       !- Temperature Schedule Name
  10.8753424657535,                       !- Annual Average Outdoor Air Temperature {C}
  23.1524007936508;                       !- Maximum Difference In Monthly Average Outdoor Air Temperatures {deltaC}

OS:RunPeriodControl:DaylightSavingTime,
  {1beb5f8b-3788-4326-95cd-9b005d7472a9}, !- Handle
  4/7,                                    !- Start Date
  10/26;                                  !- End Date

OS:Site:GroundTemperature:Deep,
  {8ba8721c-8edd-4810-823e-e020759a7514}, !- Handle
  10.8753424657535,                       !- January Deep Ground Temperature {C}
  10.8753424657535,                       !- February Deep Ground Temperature {C}
  10.8753424657535,                       !- March Deep Ground Temperature {C}
  10.8753424657535,                       !- April Deep Ground Temperature {C}
  10.8753424657535,                       !- May Deep Ground Temperature {C}
  10.8753424657535,                       !- June Deep Ground Temperature {C}
  10.8753424657535,                       !- July Deep Ground Temperature {C}
  10.8753424657535,                       !- August Deep Ground Temperature {C}
  10.8753424657535,                       !- September Deep Ground Temperature {C}
  10.8753424657535,                       !- October Deep Ground Temperature {C}
  10.8753424657535,                       !- November Deep Ground Temperature {C}
  10.8753424657535;                       !- December Deep Ground Temperature {C}

OS:Building,
  {237a4d15-cc27-48d3-894b-fe13309ee203}, !- Handle
  Building 1,                             !- Name
  ,                                       !- Building Sector Type
  270,                                    !- North Axis {deg}
  ,                                       !- Nominal Floor to Floor Height {m}
  ,                                       !- Space Type Name
  ,                                       !- Default Construction Set Name
  ,                                       !- Default Schedule Set Name
  3,                                      !- Standards Number of Stories
  2,                                      !- Standards Number of Above Ground Stories
  ,                                       !- Standards Template
  multifamily,                            !- Standards Building Type
  8;                                      !- Standards Number of Living Units

OS:AdditionalProperties,
  {f5b137ed-99ec-4cac-b1f7-7adf0aeb003f}, !- Handle
  {237a4d15-cc27-48d3-894b-fe13309ee203}, !- Object Name
  Total Units Represented,                !- Feature Name 1
  Integer,                                !- Feature Data Type 1
  8,                                      !- Feature Value 1
  Total Floors Represented,               !- Feature Name 2
  Integer,                                !- Feature Data Type 2
  2,                                      !- Feature Value 2
  Total Units Modeled,                    !- Feature Name 3
  Integer,                                !- Feature Data Type 3
  8,                                      !- Feature Value 3
  Total Floors Modeled,                   !- Feature Name 4
  Integer,                                !- Feature Data Type 4
  2,                                      !- Feature Value 4
  has_water_heater_flue,                  !- Feature Name 5
  Boolean,                                !- Feature Data Type 5
  true,                                   !- Feature Value 5
  has_hvac_flue,                          !- Feature Name 6
  Boolean,                                !- Feature Data Type 6
  true;                                   !- Feature Value 6

OS:ThermalZone,
  {4f92dbec-96af-49e1-a329-3e16c1986243}, !- Handle
  living zone,                            !- Name
  ,                                       !- Multiplier
  ,                                       !- Ceiling Height {m}
  ,                                       !- Volume {m3}
  ,                                       !- Floor Area {m2}
  ,                                       !- Zone Inside Convection Algorithm
  ,                                       !- Zone Outside Convection Algorithm
  ,                                       !- Zone Conditioning Equipment List Name
  {2334795a-fd4f-455a-b275-bd2c01657577}, !- Zone Air Inlet Port List
  {76c16995-676c-4063-9b13-f56c58ef0b2e}, !- Zone Air Exhaust Port List
  {a4421847-0512-4167-90a2-b282031da1c1}, !- Zone Air Node Name
  {ea8173f7-e2ac-49a0-b209-05e0e468fda2}, !- Zone Return Air Port List
  ,                                       !- Primary Daylighting Control Name
  ,                                       !- Fraction of Zone Controlled by Primary Daylighting Control
  ,                                       !- Secondary Daylighting Control Name
  ,                                       !- Fraction of Zone Controlled by Secondary Daylighting Control
  ,                                       !- Illuminance Map Name
  ,                                       !- Group Rendering Name
  {06124d42-6976-4f08-922a-5072121eaa99}, !- Thermostat Name
  No;                                     !- Use Ideal Air Loads

OS:Node,
  {cdfdf4b6-327c-4233-bf7e-858428ee0f0c}, !- Handle
  Node 1,                                 !- Name
  {a4421847-0512-4167-90a2-b282031da1c1}, !- Inlet Port
  ;                                       !- Outlet Port

OS:Connection,
  {a4421847-0512-4167-90a2-b282031da1c1}, !- Handle
  {d199e4f5-4758-4475-84d2-9a0bfcaf69b7}, !- Name
  {4f92dbec-96af-49e1-a329-3e16c1986243}, !- Source Object
  11,                                     !- Outlet Port
  {cdfdf4b6-327c-4233-bf7e-858428ee0f0c}, !- Target Object
  2;                                      !- Inlet Port

OS:PortList,
  {2334795a-fd4f-455a-b275-bd2c01657577}, !- Handle
  {525658b3-f194-4721-b2c5-8923f18d9d5a}, !- Name
  {4f92dbec-96af-49e1-a329-3e16c1986243}, !- HVAC Component
  {ba049cb6-189d-43bd-8b31-7432bce219dd}; !- Port 1

OS:PortList,
  {76c16995-676c-4063-9b13-f56c58ef0b2e}, !- Handle
  {043fc1f0-0507-4647-bf9d-e35d0e90bd79}, !- Name
  {4f92dbec-96af-49e1-a329-3e16c1986243}; !- HVAC Component

OS:PortList,
  {ea8173f7-e2ac-49a0-b209-05e0e468fda2}, !- Handle
  {2d141009-5e0b-448a-9ee6-b2f6b4c6ee8c}, !- Name
  {4f92dbec-96af-49e1-a329-3e16c1986243}, !- HVAC Component
  {2da1c205-4bf7-45a0-9a6f-cb7efa6f5e5e}; !- Port 1

OS:Sizing:Zone,
  {2c9262fd-72a0-46c8-bf2f-67a8da8a2ed1}, !- Handle
  {4f92dbec-96af-49e1-a329-3e16c1986243}, !- Zone or ZoneList Name
  SupplyAirTemperature,                   !- Zone Cooling Design Supply Air Temperature Input Method
  14,                                     !- Zone Cooling Design Supply Air Temperature {C}
  11.11,                                  !- Zone Cooling Design Supply Air Temperature Difference {deltaC}
  SupplyAirTemperature,                   !- Zone Heating Design Supply Air Temperature Input Method
  40,                                     !- Zone Heating Design Supply Air Temperature {C}
  11.11,                                  !- Zone Heating Design Supply Air Temperature Difference {deltaC}
  0.0085,                                 !- Zone Cooling Design Supply Air Humidity Ratio {kg-H2O/kg-air}
  0.008,                                  !- Zone Heating Design Supply Air Humidity Ratio {kg-H2O/kg-air}
  ,                                       !- Zone Heating Sizing Factor
  ,                                       !- Zone Cooling Sizing Factor
  DesignDay,                              !- Cooling Design Air Flow Method
  ,                                       !- Cooling Design Air Flow Rate {m3/s}
  ,                                       !- Cooling Minimum Air Flow per Zone Floor Area {m3/s-m2}
  ,                                       !- Cooling Minimum Air Flow {m3/s}
  ,                                       !- Cooling Minimum Air Flow Fraction
  DesignDay,                              !- Heating Design Air Flow Method
  ,                                       !- Heating Design Air Flow Rate {m3/s}
  ,                                       !- Heating Maximum Air Flow per Zone Floor Area {m3/s-m2}
  ,                                       !- Heating Maximum Air Flow {m3/s}
  ,                                       !- Heating Maximum Air Flow Fraction
  ,                                       !- Design Zone Air Distribution Effectiveness in Cooling Mode
  ,                                       !- Design Zone Air Distribution Effectiveness in Heating Mode
  No,                                     !- Account for Dedicated Outdoor Air System
  NeutralSupplyAir,                       !- Dedicated Outdoor Air System Control Strategy
  autosize,                               !- Dedicated Outdoor Air Low Setpoint Temperature for Design {C}
  autosize;                               !- Dedicated Outdoor Air High Setpoint Temperature for Design {C}

OS:ZoneHVAC:EquipmentList,
  {6db3cdf7-8319-44e2-99c1-308b4ec31bad}, !- Handle
  Zone HVAC Equipment List 1,             !- Name
  {4f92dbec-96af-49e1-a329-3e16c1986243}, !- Thermal Zone
  SequentialLoad,                         !- Load Distribution Scheme
  {21888bca-2035-4a4f-a935-6e51464c4847}, !- Zone Equipment 1
  2,                                      !- Zone Equipment Cooling Sequence 1
  2,                                      !- Zone Equipment Heating or No-Load Sequence 1
  ,                                       !- Zone Equipment Sequential Cooling Fraction Schedule Name 1
  ,                                       !- Zone Equipment Sequential Heating Fraction Schedule Name 1
  {6ad1d2a4-6f58-4f50-abc4-0b89f5aab683}, !- Zone Equipment 2
  1,                                      !- Zone Equipment Cooling Sequence 2
  1,                                      !- Zone Equipment Heating or No-Load Sequence 2
  ,                                       !- Zone Equipment Sequential Cooling Fraction Schedule Name 2
  ;                                       !- Zone Equipment Sequential Heating Fraction Schedule Name 2

OS:Space,
  {4ab748a5-3455-4f8c-bb9d-1678f23af43b}, !- Handle
  living space,                           !- Name
  {726d0058-0890-4b09-80af-180f2d04b00d}, !- Space Type Name
  ,                                       !- Default Construction Set Name
  ,                                       !- Default Schedule Set Name
  ,                                       !- Direction of Relative North {deg}
  ,                                       !- X Origin {m}
  ,                                       !- Y Origin {m}
  ,                                       !- Z Origin {m}
  ,                                       !- Building Story Name
  {4f92dbec-96af-49e1-a329-3e16c1986243}, !- Thermal Zone Name
  ,                                       !- Part of Total Floor Area
  ,                                       !- Design Specification Outdoor Air Object Name
  {37fdd56c-dfb8-4f75-b60c-14db719335b7}; !- Building Unit Name

OS:Surface,
  {4240a11d-239f-4b6d-beeb-d0318b9b3515}, !- Handle
  Surface 1,                              !- Name
  Floor,                                  !- Surface Type
  {c0c8e2db-362a-45fd-99ad-3524ee9f44b7}, !- Construction Name
  {4ab748a5-3455-4f8c-bb9d-1678f23af43b}, !- Space Name
  Surface,                                !- Outside Boundary Condition
  {151e652d-c9c5-4010-a203-245fa7309a28}, !- Outside Boundary Condition Object
  NoSun,                                  !- Sun Exposure
  NoWind,                                 !- Wind Exposure
  ,                                       !- View Factor to Ground
  ,                                       !- Number of Vertices
  0, -9.144, 0,                           !- X,Y,Z Vertex 1 {m}
  0, 0, 0,                                !- X,Y,Z Vertex 2 {m}
  5.08, 0, 0,                             !- X,Y,Z Vertex 3 {m}
  5.08, -9.144, 0;                        !- X,Y,Z Vertex 4 {m}

OS:Surface,
  {f740129a-7ad9-48ea-9f25-493cdf672853}, !- Handle
  Surface 2,                              !- Name
  Wall,                                   !- Surface Type
  {9d357bd3-93a5-44ae-9710-e81efed74ef0}, !- Construction Name
  {4ab748a5-3455-4f8c-bb9d-1678f23af43b}, !- Space Name
  Outdoors,                               !- Outside Boundary Condition
  ,                                       !- Outside Boundary Condition Object
  SunExposed,                             !- Sun Exposure
  WindExposed,                            !- Wind Exposure
  ,                                       !- View Factor to Ground
  ,                                       !- Number of Vertices
  0, 0, 2.4384,                           !- X,Y,Z Vertex 1 {m}
  0, 0, 0,                                !- X,Y,Z Vertex 2 {m}
  0, -9.144, 0,                           !- X,Y,Z Vertex 3 {m}
  0, -9.144, 2.4384;                      !- X,Y,Z Vertex 4 {m}

OS:Surface,
  {47278254-d4d0-483a-b035-770d304449d7}, !- Handle
  Surface 3,                              !- Name
  Wall,                                   !- Surface Type
  {7a77fe9b-b3fa-47e8-8950-1a927bd7d0c7}, !- Construction Name
  {4ab748a5-3455-4f8c-bb9d-1678f23af43b}, !- Space Name
  Adiabatic,                              !- Outside Boundary Condition
  ,                                       !- Outside Boundary Condition Object
  NoSun,                                  !- Sun Exposure
  NoWind,                                 !- Wind Exposure
  ,                                       !- View Factor to Ground
  ,                                       !- Number of Vertices
  5.08, 0, 2.4384,                        !- X,Y,Z Vertex 1 {m}
  5.08, 0, 0,                             !- X,Y,Z Vertex 2 {m}
  0, 0, 0,                                !- X,Y,Z Vertex 3 {m}
  0, 0, 2.4384;                           !- X,Y,Z Vertex 4 {m}

OS:Surface,
  {d0d3bad2-7761-472a-980d-74a61506779b}, !- Handle
  Surface 4,                              !- Name
  Wall,                                   !- Surface Type
  {7a77fe9b-b3fa-47e8-8950-1a927bd7d0c7}, !- Construction Name
  {4ab748a5-3455-4f8c-bb9d-1678f23af43b}, !- Space Name
  Surface,                                !- Outside Boundary Condition
  {49f34ae0-77a1-46b0-88ff-93c4fd5bf1df}, !- Outside Boundary Condition Object
  NoSun,                                  !- Sun Exposure
  NoWind,                                 !- Wind Exposure
  ,                                       !- View Factor to Ground
  ,                                       !- Number of Vertices
  5.08, -9.144, 2.4384,                   !- X,Y,Z Vertex 1 {m}
  5.08, -9.144, 0,                        !- X,Y,Z Vertex 2 {m}
  5.08, 0, 0,                             !- X,Y,Z Vertex 3 {m}
  5.08, 0, 2.4384;                        !- X,Y,Z Vertex 4 {m}

OS:Surface,
  {8211f8e7-e407-452e-a797-789ae060b043}, !- Handle
  Surface 5,                              !- Name
  Wall,                                   !- Surface Type
  {9d357bd3-93a5-44ae-9710-e81efed74ef0}, !- Construction Name
  {4ab748a5-3455-4f8c-bb9d-1678f23af43b}, !- Space Name
  Outdoors,                               !- Outside Boundary Condition
  ,                                       !- Outside Boundary Condition Object
  SunExposed,                             !- Sun Exposure
  WindExposed,                            !- Wind Exposure
  ,                                       !- View Factor to Ground
  ,                                       !- Number of Vertices
  0, -9.144, 2.4384,                      !- X,Y,Z Vertex 1 {m}
  0, -9.144, 0,                           !- X,Y,Z Vertex 2 {m}
  5.08, -9.144, 0,                        !- X,Y,Z Vertex 3 {m}
  5.08, -9.144, 2.4384;                   !- X,Y,Z Vertex 4 {m}

OS:Surface,
  {60b0c9c2-8096-480e-a7df-a7c3e82d065b}, !- Handle
  Surface 6,                              !- Name
  RoofCeiling,                            !- Surface Type
  {6b951dee-5e81-4e7b-8661-65439c6eb589}, !- Construction Name
  {4ab748a5-3455-4f8c-bb9d-1678f23af43b}, !- Space Name
  Surface,                                !- Outside Boundary Condition
  {cf5d7b48-c0bc-4e94-ab8f-54bf77ea625b}, !- Outside Boundary Condition Object
  NoSun,                                  !- Sun Exposure
  NoWind,                                 !- Wind Exposure
  ,                                       !- View Factor to Ground
  ,                                       !- Number of Vertices
  5.08, -9.144, 2.4384,                   !- X,Y,Z Vertex 1 {m}
  5.08, 0, 2.4384,                        !- X,Y,Z Vertex 2 {m}
  0, 0, 2.4384,                           !- X,Y,Z Vertex 3 {m}
  0, -9.144, 2.4384;                      !- X,Y,Z Vertex 4 {m}

OS:SpaceType,
  {726d0058-0890-4b09-80af-180f2d04b00d}, !- Handle
  Space Type 1,                           !- Name
  ,                                       !- Default Construction Set Name
  ,                                       !- Default Schedule Set Name
  ,                                       !- Group Rendering Name
  ,                                       !- Design Specification Outdoor Air Object Name
  ,                                       !- Standards Template
  ,                                       !- Standards Building Type
  living;                                 !- Standards Space Type

OS:ThermalZone,
  {e60409ad-c4fa-4596-a6a6-ec8f89c7c0fd}, !- Handle
  living zone|unit 2,                     !- Name
  ,                                       !- Multiplier
  ,                                       !- Ceiling Height {m}
  ,                                       !- Volume {m3}
  ,                                       !- Floor Area {m2}
  ,                                       !- Zone Inside Convection Algorithm