!- NOTE: Auto-generated from /test/osw_files/MF_2story_UB_Furnace_AC1_FuelTankWH.osw

OS:Version,
  {f27f7e1f-fd62-4ff8-a414-05368a0b6442}, !- Handle
  2.9.0;                                  !- Version Identifier

OS:SimulationControl,
  {61028a80-b7be-42d7-825c-baa6edbcec7f}, !- Handle
  ,                                       !- Do Zone Sizing Calculation
  ,                                       !- Do System Sizing Calculation
  ,                                       !- Do Plant Sizing Calculation
  No;                                     !- Run Simulation for Sizing Periods

OS:Timestep,
  {a86bcc18-27a5-4146-83dd-9223f62607a5}, !- Handle
  6;                                      !- Number of Timesteps per Hour

OS:ShadowCalculation,
  {f6dcbdbc-2f44-4dd0-a340-fef38e35126d}, !- Handle
  20,                                     !- Calculation Frequency
  200;                                    !- Maximum Figures in Shadow Overlap Calculations

OS:SurfaceConvectionAlgorithm:Outside,
  {4d585721-45ba-4561-853a-5469d811a601}, !- Handle
  DOE-2;                                  !- Algorithm

OS:SurfaceConvectionAlgorithm:Inside,
  {b4c221ac-015b-4249-9675-2fbe9332ddb7}, !- Handle
  TARP;                                   !- Algorithm

OS:ZoneCapacitanceMultiplier:ResearchSpecial,
  {db1ca29d-bf41-48a6-a667-2f626a45f995}, !- Handle
  ,                                       !- Temperature Capacity Multiplier
  15,                                     !- Humidity Capacity Multiplier
  ;                                       !- Carbon Dioxide Capacity Multiplier

OS:RunPeriod,
  {8b80e1d1-c06e-4406-9efc-93cfeaf81fa7}, !- Handle
  Run Period 1,                           !- Name
  1,                                      !- Begin Month
  1,                                      !- Begin Day of Month
  12,                                     !- End Month
  31,                                     !- End Day of Month
  ,                                       !- Use Weather File Holidays and Special Days
  ,                                       !- Use Weather File Daylight Saving Period
  ,                                       !- Apply Weekend Holiday Rule
  ,                                       !- Use Weather File Rain Indicators
  ,                                       !- Use Weather File Snow Indicators
  ;                                       !- Number of Times Runperiod to be Repeated

OS:YearDescription,
  {33ca3096-6e11-4d27-840d-ff588284abcb}, !- Handle
  2007,                                   !- Calendar Year
  ,                                       !- Day of Week for Start Day
  ;                                       !- Is Leap Year

OS:WeatherFile,
  {abc3e621-bfe7-41bc-9d92-4ae5d7bd2510}, !- Handle
  Denver Intl Ap,                         !- City
  CO,                                     !- State Province Region
  USA,                                    !- Country
  TMY3,                                   !- Data Source
  725650,                                 !- WMO Number
  39.83,                                  !- Latitude {deg}
  -104.65,                                !- Longitude {deg}
  -7,                                     !- Time Zone {hr}
  1650,                                   !- Elevation {m}
  file:../weather/USA_CO_Denver.Intl.AP.725650_TMY3.epw, !- Url
  E23378AA;                               !- Checksum

OS:AdditionalProperties,
  {c23cd753-f7f9-4f75-aa3d-72f6814cd298}, !- Handle
  {abc3e621-bfe7-41bc-9d92-4ae5d7bd2510}, !- Object Name
  EPWHeaderCity,                          !- Feature Name 1
  String,                                 !- Feature Data Type 1
  Denver Intl Ap,                         !- Feature Value 1
  EPWHeaderState,                         !- Feature Name 2
  String,                                 !- Feature Data Type 2
  CO,                                     !- Feature Value 2
  EPWHeaderCountry,                       !- Feature Name 3
  String,                                 !- Feature Data Type 3
  USA,                                    !- Feature Value 3
  EPWHeaderDataSource,                    !- Feature Name 4
  String,                                 !- Feature Data Type 4
  TMY3,                                   !- Feature Value 4
  EPWHeaderStation,                       !- Feature Name 5
  String,                                 !- Feature Data Type 5
  725650,                                 !- Feature Value 5
  EPWHeaderLatitude,                      !- Feature Name 6
  Double,                                 !- Feature Data Type 6
  39.829999999999998,                     !- Feature Value 6
  EPWHeaderLongitude,                     !- Feature Name 7
  Double,                                 !- Feature Data Type 7
  -104.65000000000001,                    !- Feature Value 7
  EPWHeaderTimezone,                      !- Feature Name 8
  Double,                                 !- Feature Data Type 8
  -7,                                     !- Feature Value 8
  EPWHeaderAltitude,                      !- Feature Name 9
  Double,                                 !- Feature Data Type 9
  5413.3858267716532,                     !- Feature Value 9
  EPWHeaderLocalPressure,                 !- Feature Name 10
  Double,                                 !- Feature Data Type 10
  0.81937567683596546,                    !- Feature Value 10
  EPWHeaderRecordsPerHour,                !- Feature Name 11
  Double,                                 !- Feature Data Type 11
  0,                                      !- Feature Value 11
  EPWDataAnnualAvgDrybulb,                !- Feature Name 12
  Double,                                 !- Feature Data Type 12
  51.575616438356228,                     !- Feature Value 12
  EPWDataAnnualMinDrybulb,                !- Feature Name 13
  Double,                                 !- Feature Data Type 13
  -2.9200000000000017,                    !- Feature Value 13
  EPWDataAnnualMaxDrybulb,                !- Feature Name 14
  Double,                                 !- Feature Data Type 14
  104,                                    !- Feature Value 14
  EPWDataCDD50F,                          !- Feature Name 15
  Double,                                 !- Feature Data Type 15
  3072.2925000000005,                     !- Feature Value 15
  EPWDataCDD65F,                          !- Feature Name 16
  Double,                                 !- Feature Data Type 16
  883.62000000000035,                     !- Feature Value 16
  EPWDataHDD50F,                          !- Feature Name 17
  Double,                                 !- Feature Data Type 17
  2497.1925000000001,                     !- Feature Value 17
  EPWDataHDD65F,                          !- Feature Name 18
  Double,                                 !- Feature Data Type 18
  5783.5200000000013,                     !- Feature Value 18
  EPWDataAnnualAvgWindspeed,              !- Feature Name 19
  Double,                                 !- Feature Data Type 19
  3.9165296803649667,                     !- Feature Value 19
  EPWDataMonthlyAvgDrybulbs,              !- Feature Name 20
  String,                                 !- Feature Data Type 20
  33.4191935483871&#4431.90142857142857&#4443.02620967741937&#4442.48624999999999&#4459.877741935483854&#4473.57574999999997&#4472.07975806451608&#4472.70008064516134&#4466.49200000000006&#4450.079112903225806&#4437.218250000000005&#4434.582177419354835, !- Feature Value 20
  EPWDataGroundMonthlyTemps,              !- Feature Name 21
  String,                                 !- Feature Data Type 21
  44.08306285945173&#4440.89570904991865&#4440.64045432632048&#4442.153016571250646&#4448.225111118704206&#4454.268919273837525&#4459.508577937551024&#4462.82777283423508&#4463.10975667174995&#4460.41014950381947&#4455.304105212311526&#4449.445696474514364, !- Feature Value 21
  EPWDataWSF,                             !- Feature Name 22
  Double,                                 !- Feature Data Type 22
  0.58999999999999997,                    !- Feature Value 22
  EPWDataMonthlyAvgDailyHighDrybulbs,     !- Feature Name 23
  String,                                 !- Feature Data Type 23
  47.41032258064516&#4446.58642857142857&#4455.15032258064517&#4453.708&#4472.80193548387098&#4488.67600000000002&#4486.1858064516129&#4485.87225806451613&#4482.082&#4463.18064516129033&#4448.73400000000001&#4448.87935483870968, !- Feature Value 23
  EPWDataMonthlyAvgDailyLowDrybulbs,      !- Feature Name 24
  String,                                 !- Feature Data Type 24
  19.347741935483874&#4419.856428571428573&#4430.316129032258065&#4431.112&#4447.41612903225806&#4457.901999999999994&#4459.063870967741934&#4460.956774193548384&#4452.352000000000004&#4438.41612903225806&#4427.002000000000002&#4423.02903225806451, !- Feature Value 24
  EPWDesignHeatingDrybulb,                !- Feature Name 25
  Double,                                 !- Feature Data Type 25
  12.02,                                  !- Feature Value 25
  EPWDesignHeatingWindspeed,              !- Feature Name 26
  Double,                                 !- Feature Data Type 26
  2.8062500000000004,                     !- Feature Value 26
  EPWDesignCoolingDrybulb,                !- Feature Name 27
  Double,                                 !- Feature Data Type 27
  91.939999999999998,                     !- Feature Value 27
  EPWDesignCoolingWetbulb,                !- Feature Name 28
  Double,                                 !- Feature Data Type 28
  59.95131430195849,                      !- Feature Value 28
  EPWDesignCoolingHumidityRatio,          !- Feature Name 29
  Double,                                 !- Feature Data Type 29
  0.0059161086834698092,                  !- Feature Value 29
  EPWDesignCoolingWindspeed,              !- Feature Name 30
  Double,                                 !- Feature Data Type 30
  3.7999999999999989,                     !- Feature Value 30
  EPWDesignDailyTemperatureRange,         !- Feature Name 31
  Double,                                 !- Feature Data Type 31
  24.915483870967748,                     !- Feature Value 31
  EPWDesignDehumidDrybulb,                !- Feature Name 32
  Double,                                 !- Feature Data Type 32
  67.996785714285721,                     !- Feature Value 32
  EPWDesignDehumidHumidityRatio,          !- Feature Name 33
  Double,                                 !- Feature Data Type 33
  0.012133744170488724,                   !- Feature Value 33
  EPWDesignCoolingDirectNormal,           !- Feature Name 34
  Double,                                 !- Feature Data Type 34
  985,                                    !- Feature Value 34
  EPWDesignCoolingDiffuseHorizontal,      !- Feature Name 35
  Double,                                 !- Feature Data Type 35
  84;                                     !- Feature Value 35

OS:Site,
  {ba3c38cb-efc4-4f17-8029-cb0acd783032}, !- Handle
  Denver Intl Ap_CO_USA,                  !- Name
  39.83,                                  !- Latitude {deg}
  -104.65,                                !- Longitude {deg}
  -7,                                     !- Time Zone {hr}
  1650,                                   !- Elevation {m}
  Suburbs;                                !- Terrain

OS:ClimateZones,
  {8c2bffd1-2494-487c-8956-b8229ebec8e3}, !- Handle
  ,                                       !- Active Institution
  ,                                       !- Active Year
  ,                                       !- Climate Zone Institution Name 1
  ,                                       !- Climate Zone Document Name 1
  ,                                       !- Climate Zone Document Year 1
  ,                                       !- Climate Zone Value 1
  Building America,                       !- Climate Zone Institution Name 2
  ,                                       !- Climate Zone Document Name 2
  0,                                      !- Climate Zone Document Year 2
  Cold;                                   !- Climate Zone Value 2

OS:Site:WaterMainsTemperature,
  {41855b88-9963-4e1a-b875-e055ebc9ccea}, !- Handle
  Correlation,                            !- Calculation Method
  ,                                       !- Temperature Schedule Name
  10.8753424657535,                       !- Annual Average Outdoor Air Temperature {C}
  23.1524007936508;                       !- Maximum Difference In Monthly Average Outdoor Air Temperatures {deltaC}

OS:RunPeriodControl:DaylightSavingTime,
  {420d5cb5-0499-4b86-9b79-540b5aba575f}, !- Handle
  4/7,                                    !- Start Date
  10/26;                                  !- End Date

OS:Site:GroundTemperature:Deep,
  {e901eb2d-aa19-4dcc-9981-7c5d6b590ed4}, !- Handle
  10.8753424657535,                       !- January Deep Ground Temperature {C}
  10.8753424657535,                       !- February Deep Ground Temperature {C}
  10.8753424657535,                       !- March Deep Ground Temperature {C}
  10.8753424657535,                       !- April Deep Ground Temperature {C}
  10.8753424657535,                       !- May Deep Ground Temperature {C}
  10.8753424657535,                       !- June Deep Ground Temperature {C}
  10.8753424657535,                       !- July Deep Ground Temperature {C}
  10.8753424657535,                       !- August Deep Ground Temperature {C}
  10.8753424657535,                       !- September Deep Ground Temperature {C}
  10.8753424657535,                       !- October Deep Ground Temperature {C}
  10.8753424657535,                       !- November Deep Ground Temperature {C}
  10.8753424657535;                       !- December Deep Ground Temperature {C}

OS:ThermalZone,
  {debf37df-9512-40da-a05b-a2322e9fb4cc}, !- Handle
  living zone,                            !- Name
  ,                                       !- Multiplier
  ,                                       !- Ceiling Height {m}
  ,                                       !- Volume {m3}
  ,                                       !- Floor Area {m2}
  ,                                       !- Zone Inside Convection Algorithm
  ,                                       !- Zone Outside Convection Algorithm
  ,                                       !- Zone Conditioning Equipment List Name
  {df42702e-2623-4ec3-90f0-a561e234c5df}, !- Zone Air Inlet Port List
  {08d5ac80-f03e-4cf7-8a72-e8c76c5a281f}, !- Zone Air Exhaust Port List
  {cc7ac5fd-c1c6-4941-80c2-c44dd2cb994c}, !- Zone Air Node Name
  {d82d2644-def6-464e-95e5-6c497fe7ca3f}, !- Zone Return Air Port List
  ,                                       !- Primary Daylighting Control Name
  ,                                       !- Fraction of Zone Controlled by Primary Daylighting Control
  ,                                       !- Secondary Daylighting Control Name
  ,                                       !- Fraction of Zone Controlled by Secondary Daylighting Control
  ,                                       !- Illuminance Map Name
  ,                                       !- Group Rendering Name
  {a42e141d-b799-4320-ad8b-7584164ad196}, !- Thermostat Name
  No;                                     !- Use Ideal Air Loads

OS:Node,
  {e89cbe5d-38e7-4e3a-a453-8535c56bc07e}, !- Handle
  Node 1,                                 !- Name
  {cc7ac5fd-c1c6-4941-80c2-c44dd2cb994c}, !- Inlet Port
  ;                                       !- Outlet Port

OS:Connection,
  {cc7ac5fd-c1c6-4941-80c2-c44dd2cb994c}, !- Handle
  {3f09c98d-05b2-4488-a18c-bac4cec021ec}, !- Name
  {debf37df-9512-40da-a05b-a2322e9fb4cc}, !- Source Object
  11,                                     !- Outlet Port
  {e89cbe5d-38e7-4e3a-a453-8535c56bc07e}, !- Target Object
  2;                                      !- Inlet Port

OS:PortList,
  {df42702e-2623-4ec3-90f0-a561e234c5df}, !- Handle
  {bc6579e7-ddaf-4e71-8fb2-610b5aa93d96}, !- Name
  {debf37df-9512-40da-a05b-a2322e9fb4cc}, !- HVAC Component
  {d5139768-8126-494a-a038-987cc590f3d5}, !- Port 1
  {98ccf995-6c72-4326-bf0c-60154bedeb9d}; !- Port 2

OS:PortList,
  {08d5ac80-f03e-4cf7-8a72-e8c76c5a281f}, !- Handle
  {89cc88ac-bd4b-4619-8724-569b943b080f}, !- Name
  {debf37df-9512-40da-a05b-a2322e9fb4cc}; !- HVAC Component

OS:PortList,
  {d82d2644-def6-464e-95e5-6c497fe7ca3f}, !- Handle
  {bbdbe8e4-9314-45ea-a3e1-0d3784f86c3c}, !- Name
  {debf37df-9512-40da-a05b-a2322e9fb4cc}, !- HVAC Component
  {6e747302-ad2f-4aca-b637-1c56b83f8e4e}, !- Port 1
  {8024b335-25ab-4af5-8b51-ca210f9155b5}; !- Port 2

OS:Sizing:Zone,
  {f04fa11d-b748-4586-aec5-db06e80f6bcd}, !- Handle
  {debf37df-9512-40da-a05b-a2322e9fb4cc}, !- Zone or ZoneList Name
  SupplyAirTemperature,                   !- Zone Cooling Design Supply Air Temperature Input Method
  14,                                     !- Zone Cooling Design Supply Air Temperature {C}
  11.11,                                  !- Zone Cooling Design Supply Air Temperature Difference {deltaC}
  SupplyAirTemperature,                   !- Zone Heating Design Supply Air Temperature Input Method
  40,                                     !- Zone Heating Design Supply Air Temperature {C}
  11.11,                                  !- Zone Heating Design Supply Air Temperature Difference {deltaC}
  0.0085,                                 !- Zone Cooling Design Supply Air Humidity Ratio {kg-H2O/kg-air}
  0.008,                                  !- Zone Heating Design Supply Air Humidity Ratio {kg-H2O/kg-air}
  ,                                       !- Zone Heating Sizing Factor
  ,                                       !- Zone Cooling Sizing Factor
  DesignDay,                              !- Cooling Design Air Flow Method
  ,                                       !- Cooling Design Air Flow Rate {m3/s}
  ,                                       !- Cooling Minimum Air Flow per Zone Floor Area {m3/s-m2}
  ,                                       !- Cooling Minimum Air Flow {m3/s}
  ,                                       !- Cooling Minimum Air Flow Fraction
  DesignDay,                              !- Heating Design Air Flow Method
  ,                                       !- Heating Design Air Flow Rate {m3/s}
  ,                                       !- Heating Maximum Air Flow per Zone Floor Area {m3/s-m2}
  ,                                       !- Heating Maximum Air Flow {m3/s}
  ,                                       !- Heating Maximum Air Flow Fraction
  ,                                       !- Design Zone Air Distribution Effectiveness in Cooling Mode
  ,                                       !- Design Zone Air Distribution Effectiveness in Heating Mode
  No,                                     !- Account for Dedicated Outdoor Air System
  NeutralSupplyAir,                       !- Dedicated Outdoor Air System Control Strategy
  autosize,                               !- Dedicated Outdoor Air Low Setpoint Temperature for Design {C}
  autosize;                               !- Dedicated Outdoor Air High Setpoint Temperature for Design {C}

OS:ZoneHVAC:EquipmentList,
  {e886793a-8d25-49d2-9d1b-c8a40d3c54b6}, !- Handle
  Zone HVAC Equipment List 1,             !- Name
  {debf37df-9512-40da-a05b-a2322e9fb4cc}, !- Thermal Zone
  SequentialLoad,                         !- Load Distribution Scheme
  {36eb917a-489e-4dd8-8780-e3ed813386ba}, !- Zone Equipment 1
  1,                                      !- Zone Equipment Cooling Sequence 1
  1,                                      !- Zone Equipment Heating or No-Load Sequence 1
  ,                                       !- Zone Equipment Sequential Cooling Fraction Schedule Name 1
  ,                                       !- Zone Equipment Sequential Heating Fraction Schedule Name 1
  {7b434771-90d8-47f6-a0a0-7cc8ad794299}, !- Zone Equipment 2
  2,                                      !- Zone Equipment Cooling Sequence 2
  2,                                      !- Zone Equipment Heating or No-Load Sequence 2
  ,                                       !- Zone Equipment Sequential Cooling Fraction Schedule Name 2
  ;                                       !- Zone Equipment Sequential Heating Fraction Schedule Name 2

OS:Space,
  {42c7fc34-e94f-45ec-b6e8-0c98765aeac6}, !- Handle
  living space,                           !- Name
  {0decd380-c752-4b91-bf03-1493cf0dcbcf}, !- Space Type Name
  ,                                       !- Default Construction Set Name
  ,                                       !- Default Schedule Set Name
  ,                                       !- Direction of Relative North {deg}
  ,                                       !- X Origin {m}
  ,                                       !- Y Origin {m}
  ,                                       !- Z Origin {m}
  ,                                       !- Building Story Name
  {debf37df-9512-40da-a05b-a2322e9fb4cc}, !- Thermal Zone Name
  ,                                       !- Part of Total Floor Area
  ,                                       !- Design Specification Outdoor Air Object Name
  {51146bde-caa4-484c-9ae3-9451c6f771b2}; !- Building Unit Name

OS:Surface,
  {d28262a0-b78a-4c00-81f2-049ee65b3f61}, !- Handle
  Surface 1,                              !- Name
  Floor,                                  !- Surface Type
  {c0651555-138c-42d6-a875-9b143137a249}, !- Construction Name
  {42c7fc34-e94f-45ec-b6e8-0c98765aeac6}, !- Space Name
  Surface,                                !- Outside Boundary Condition
  {fa0c66be-5728-4348-86e8-ffe504fae355}, !- Outside Boundary Condition Object
  NoSun,                                  !- Sun Exposure
  NoWind,                                 !- Wind Exposure
  ,                                       !- View Factor to Ground
  ,                                       !- Number of Vertices
  0, -9.144, 0,                           !- X,Y,Z Vertex 1 {m}
  0, 0, 0,                                !- X,Y,Z Vertex 2 {m}
  5.08, 0, 0,                             !- X,Y,Z Vertex 3 {m}
  5.08, -9.144, 0;                        !- X,Y,Z Vertex 4 {m}

OS:Surface,
  {d2476740-0e26-4d65-9579-dab1ada3caa4}, !- Handle
  Surface 2,                              !- Name
  Wall,                                   !- Surface Type
  {10051fa9-1d0c-45af-8387-e272f4b77271}, !- Construction Name
  {42c7fc34-e94f-45ec-b6e8-0c98765aeac6}, !- Space Name
  Outdoors,                               !- Outside Boundary Condition
  ,                                       !- Outside Boundary Condition Object
  SunExposed,                             !- Sun Exposure
  WindExposed,                            !- Wind Exposure
  ,                                       !- View Factor to Ground
  ,                                       !- Number of Vertices
  0, 0, 2.4384,                           !- X,Y,Z Vertex 1 {m}
  0, 0, 0,                                !- X,Y,Z Vertex 2 {m}
  0, -9.144, 0,                           !- X,Y,Z Vertex 3 {m}
  0, -9.144, 2.4384;                      !- X,Y,Z Vertex 4 {m}

OS:Surface,
  {8d5032c2-591e-4f37-bb56-b07e4ba914ea}, !- Handle
  Surface 3,                              !- Name
  Wall,                                   !- Surface Type
  {84fe608d-7686-4470-a13f-96a2325bb82e}, !- Construction Name
  {42c7fc34-e94f-45ec-b6e8-0c98765aeac6}, !- Space Name
  Adiabatic,                              !- Outside Boundary Condition
  ,                                       !- Outside Boundary Condition Object
  NoSun,                                  !- Sun Exposure
  NoWind,                                 !- Wind Exposure
  ,                                       !- View Factor to Ground
  ,                                       !- Number of Vertices
  5.08, 0, 2.4384,                        !- X,Y,Z Vertex 1 {m}
  5.08, 0, 0,                             !- X,Y,Z Vertex 2 {m}
  0, 0, 0,                                !- X,Y,Z Vertex 3 {m}
  0, 0, 2.4384;                           !- X,Y,Z Vertex 4 {m}

OS:Surface,
  {b24ab302-b3aa-48f7-b570-02c463542d2d}, !- Handle
  Surface 4,                              !- Name
  Wall,                                   !- Surface Type
  {1593472e-2948-482f-876c-7a852b3c7eb4}, !- Construction Name
  {42c7fc34-e94f-45ec-b6e8-0c98765aeac6}, !- Space Name
  Surface,                                !- Outside Boundary Condition
  {862cf36c-aa1d-45b0-8a98-1e2398aea8a0}, !- Outside Boundary Condition Object
  NoSun,                                  !- Sun Exposure
  NoWind,                                 !- Wind Exposure
  ,                                       !- View Factor to Ground
  ,                                       !- Number of Vertices
  5.08, -9.144, 2.4384,                   !- X,Y,Z Vertex 1 {m}
  5.08, -9.144, 0,                        !- X,Y,Z Vertex 2 {m}
  5.08, 0, 0,                             !- X,Y,Z Vertex 3 {m}
  5.08, 0, 2.4384;                        !- X,Y,Z Vertex 4 {m}

OS:Surface,
  {24723d66-b2db-4b9b-b7da-c6eba0056045}, !- Handle
  Surface 5,                              !- Name
  Wall,                                   !- Surface Type
  {10051fa9-1d0c-45af-8387-e272f4b77271}, !- Construction Name
  {42c7fc34-e94f-45ec-b6e8-0c98765aeac6}, !- Space Name
  Outdoors,                               !- Outside Boundary Condition
  ,                                       !- Outside Boundary Condition Object
  SunExposed,                             !- Sun Exposure
  WindExposed,                            !- Wind Exposure
  ,                                       !- View Factor to Ground
  ,                                       !- Number of Vertices
  0, -9.144, 2.4384,                      !- X,Y,Z Vertex 1 {m}
  0, -9.144, 0,                           !- X,Y,Z Vertex 2 {m}
  5.08, -9.144, 0,                        !- X,Y,Z Vertex 3 {m}
  5.08, -9.144, 2.4384;                   !- X,Y,Z Vertex 4 {m}

OS:Surface,
  {1c7034b0-0195-4df7-93b0-312a57cc0171}, !- Handle
  Surface 6,                              !- Name
  RoofCeiling,                            !- Surface Type
  {d51cdf37-92c6-4f3c-baf4-69f141a62758}, !- Construction Name
  {42c7fc34-e94f-45ec-b6e8-0c98765aeac6}, !- Space Name
  Surface,                                !- Outside Boundary Condition
  {d0400c56-5614-4eea-9cef-af4bbf89b50b}, !- Outside Boundary Condition Object
  NoSun,                                  !- Sun Exposure
  NoWind,                                 !- Wind Exposure
  ,                                       !- View Factor to Ground
  ,                                       !- Number of Vertices
  5.08, -9.144, 2.4384,                   !- X,Y,Z Vertex 1 {m}
  5.08, 0, 2.4384,                        !- X,Y,Z Vertex 2 {m}
  0, 0, 2.4384,                           !- X,Y,Z Vertex 3 {m}
  0, -9.144, 2.4384;                      !- X,Y,Z Vertex 4 {m}

OS:SpaceType,
  {0decd380-c752-4b91-bf03-1493cf0dcbcf}, !- Handle
  Space Type 1,                           !- Name
  ,                                       !- Default Construction Set Name
  ,                                       !- Default Schedule Set Name
  ,                                       !- Group Rendering Name
  ,                                       !- Design Specification Outdoor Air Object Name
  ,                                       !- Standards Template
  ,                                       !- Standards Building Type
  living;                                 !- Standards Space Type

OS:ThermalZone,
  {02f67934-86a8-4d99-9f0d-ee1ae8827f14}, !- Handle
  living zone|unit 2,                     !- Name
  ,                                       !- Multiplier
  ,                                       !- Ceiling Height {m}
  ,                                       !- Volume {m3}
  ,                                       !- Floor Area {m2}
  ,                                       !- Zone Inside Convection Algorithm
  ,                                       !- Zone Outside Convection Algorithm
  ,                                       !- Zone Conditioning Equipment List Name
  {5e82d341-8a85-4c68-98d2-788eb47dcc3a}, !- Zone Air Inlet Port List
  {2cc5525f-e045-416c-afb5-1c2a3e050048}, !- Zone Air Exhaust Port List
  {2ba35434-926a-4c61-bd3c-bdef86a46952}, !- Zone Air Node Name
  {481f1a27-4a60-460e-8a9c-40e3607e8ce2}, !- Zone Return Air Port List
  ,                                       !- Primary Daylighting Control Name
  ,                                       !- Fraction of Zone Controlled by Primary Daylighting Control
  ,                                       !- Secondary Daylighting Control Name
  ,                                       !- Fraction of Zone Controlled by Secondary Daylighting Control
  ,                                       !- Illuminance Map Name
  ,                                       !- Group Rendering Name
  {5d1f380f-d5ff-4d75-a14b-55afbbbb9514}, !- Thermostat Name
  No;                                     !- Use Ideal Air Loads

OS:Node,
  {c0457ccf-769e-42af-a501-b2222fdcfc70}, !- Handle
  Node 2,                                 !- Name
  {2ba35434-926a-4c61-bd3c-bdef86a46952}, !- Inlet Port
  ;                                       !- Outlet Port

OS:Connection,
  {2ba35434-926a-4c61-bd3c-bdef86a46952}, !- Handle
  {c5d3c01b-adbb-4d83-98e9-20d98285b7f3}, !- Name
  {02f67934-86a8-4d99-9f0d-ee1ae8827f14}, !- Source Object
  11,                                     !- Outlet Port
  {c0457ccf-769e-42af-a501-b2222fdcfc70}, !- Target Object
  2;                                      !- Inlet Port

OS:PortList,
  {5e82d341-8a85-4c68-98d2-788eb47dcc3a}, !- Handle
  {bf771d7d-94ce-4076-a7e7-2e8b2e45dc1a}, !- Name
  {02f67934-86a8-4d99-9f0d-ee1ae8827f14}, !- HVAC Component
  {66b7c880-a69f-4e75-abd6-3ce27e2e0b15}, !- Port 1
  {8c68429d-734f-4d58-b47d-6dd708cf0dc7}; !- Port 2

OS:PortList,
  {2cc5525f-e045-416c-afb5-1c2a3e050048}, !- Handle
  {f09316ef-d758-4fd7-b32b-ffc1755d783f}, !- Name