!- NOTE: Auto-generated from /test/osw_files/MF_2story_UB_Furnace_AC1_FuelTankWH_Collapsed.osw

OS:Version,
  {8c1a64ab-7bd2-462a-97ec-c3df8e28cce6}, !- Handle
  2.9.0;                                  !- Version Identifier

OS:WeatherFile,
  {b3dd0718-9f47-44dd-bbda-1919abddd227}, !- Handle
  Denver Intl Ap,                         !- City
  CO,                                     !- State Province Region
  USA,                                    !- Country
  TMY3,                                   !- Data Source
  725650,                                 !- WMO Number
  39.83,                                  !- Latitude {deg}
  -104.65,                                !- Longitude {deg}
  -7,                                     !- Time Zone {hr}
  1650,                                   !- Elevation {m}
  file:../weather/USA_CO_Denver.Intl.AP.725650_TMY3.epw, !- Url
  E23378AA;                               !- Checksum

OS:AdditionalProperties,
  {380fb984-9f1b-4cbc-8f76-1808dad8f72e}, !- Handle
  {b3dd0718-9f47-44dd-bbda-1919abddd227}, !- Object Name
  EPWHeaderCity,                          !- Feature Name 1
  String,                                 !- Feature Data Type 1
  Denver Intl Ap,                         !- Feature Value 1
  EPWHeaderState,                         !- Feature Name 2
  String,                                 !- Feature Data Type 2
  CO,                                     !- Feature Value 2
  EPWHeaderCountry,                       !- Feature Name 3
  String,                                 !- Feature Data Type 3
  USA,                                    !- Feature Value 3
  EPWHeaderDataSource,                    !- Feature Name 4
  String,                                 !- Feature Data Type 4
  TMY3,                                   !- Feature Value 4
  EPWHeaderStation,                       !- Feature Name 5
  String,                                 !- Feature Data Type 5
  725650,                                 !- Feature Value 5
  EPWHeaderLatitude,                      !- Feature Name 6
  Double,                                 !- Feature Data Type 6
  39.829999999999998,                     !- Feature Value 6
  EPWHeaderLongitude,                     !- Feature Name 7
  Double,                                 !- Feature Data Type 7
  -104.65000000000001,                    !- Feature Value 7
  EPWHeaderTimezone,                      !- Feature Name 8
  Double,                                 !- Feature Data Type 8
  -7,                                     !- Feature Value 8
  EPWHeaderAltitude,                      !- Feature Name 9
  Double,                                 !- Feature Data Type 9
  5413.3858267716532,                     !- Feature Value 9
  EPWHeaderLocalPressure,                 !- Feature Name 10
  Double,                                 !- Feature Data Type 10
  0.81937567683596546,                    !- Feature Value 10
  EPWHeaderRecordsPerHour,                !- Feature Name 11
  Double,                                 !- Feature Data Type 11
  0,                                      !- Feature Value 11
  EPWDataAnnualAvgDrybulb,                !- Feature Name 12
  Double,                                 !- Feature Data Type 12
  51.575616438356228,                     !- Feature Value 12
  EPWDataAnnualMinDrybulb,                !- Feature Name 13
  Double,                                 !- Feature Data Type 13
  -2.9200000000000017,                    !- Feature Value 13
  EPWDataAnnualMaxDrybulb,                !- Feature Name 14
  Double,                                 !- Feature Data Type 14
  104,                                    !- Feature Value 14
  EPWDataCDD50F,                          !- Feature Name 15
  Double,                                 !- Feature Data Type 15
  3072.2925000000005,                     !- Feature Value 15
  EPWDataCDD65F,                          !- Feature Name 16
  Double,                                 !- Feature Data Type 16
  883.62000000000035,                     !- Feature Value 16
  EPWDataHDD50F,                          !- Feature Name 17
  Double,                                 !- Feature Data Type 17
  2497.1925000000001,                     !- Feature Value 17
  EPWDataHDD65F,                          !- Feature Name 18
  Double,                                 !- Feature Data Type 18
  5783.5200000000013,                     !- Feature Value 18
  EPWDataAnnualAvgWindspeed,              !- Feature Name 19
  Double,                                 !- Feature Data Type 19
  3.9165296803649667,                     !- Feature Value 19
  EPWDataMonthlyAvgDrybulbs,              !- Feature Name 20
  String,                                 !- Feature Data Type 20
  33.4191935483871&#4431.90142857142857&#4443.02620967741937&#4442.48624999999999&#4459.877741935483854&#4473.57574999999997&#4472.07975806451608&#4472.70008064516134&#4466.49200000000006&#4450.079112903225806&#4437.218250000000005&#4434.582177419354835, !- Feature Value 20
  EPWDataGroundMonthlyTemps,              !- Feature Name 21
  String,                                 !- Feature Data Type 21
  44.08306285945173&#4440.89570904991865&#4440.64045432632048&#4442.153016571250646&#4448.225111118704206&#4454.268919273837525&#4459.508577937551024&#4462.82777283423508&#4463.10975667174995&#4460.41014950381947&#4455.304105212311526&#4449.445696474514364, !- Feature Value 21
  EPWDataWSF,                             !- Feature Name 22
  Double,                                 !- Feature Data Type 22
  0.58999999999999997,                    !- Feature Value 22
  EPWDataMonthlyAvgDailyHighDrybulbs,     !- Feature Name 23
  String,                                 !- Feature Data Type 23
  47.41032258064516&#4446.58642857142857&#4455.15032258064517&#4453.708&#4472.80193548387098&#4488.67600000000002&#4486.1858064516129&#4485.87225806451613&#4482.082&#4463.18064516129033&#4448.73400000000001&#4448.87935483870968, !- Feature Value 23
  EPWDataMonthlyAvgDailyLowDrybulbs,      !- Feature Name 24
  String,                                 !- Feature Data Type 24
  19.347741935483874&#4419.856428571428573&#4430.316129032258065&#4431.112&#4447.41612903225806&#4457.901999999999994&#4459.063870967741934&#4460.956774193548384&#4452.352000000000004&#4438.41612903225806&#4427.002000000000002&#4423.02903225806451, !- Feature Value 24
  EPWDesignHeatingDrybulb,                !- Feature Name 25
  Double,                                 !- Feature Data Type 25
  12.02,                                  !- Feature Value 25
  EPWDesignHeatingWindspeed,              !- Feature Name 26
  Double,                                 !- Feature Data Type 26
  2.8062500000000004,                     !- Feature Value 26
  EPWDesignCoolingDrybulb,                !- Feature Name 27
  Double,                                 !- Feature Data Type 27
  91.939999999999998,                     !- Feature Value 27
  EPWDesignCoolingWetbulb,                !- Feature Name 28
  Double,                                 !- Feature Data Type 28
  59.95131430195849,                      !- Feature Value 28
  EPWDesignCoolingHumidityRatio,          !- Feature Name 29
  Double,                                 !- Feature Data Type 29
  0.0059161086834698092,                  !- Feature Value 29
  EPWDesignCoolingWindspeed,              !- Feature Name 30
  Double,                                 !- Feature Data Type 30
  3.7999999999999989,                     !- Feature Value 30
  EPWDesignDailyTemperatureRange,         !- Feature Name 31
  Double,                                 !- Feature Data Type 31
  24.915483870967748,                     !- Feature Value 31
  EPWDesignDehumidDrybulb,                !- Feature Name 32
  Double,                                 !- Feature Data Type 32
  67.996785714285721,                     !- Feature Value 32
  EPWDesignDehumidHumidityRatio,          !- Feature Name 33
  Double,                                 !- Feature Data Type 33
  0.012133744170488724,                   !- Feature Value 33
  EPWDesignCoolingDirectNormal,           !- Feature Name 34
  Double,                                 !- Feature Data Type 34
  985,                                    !- Feature Value 34
  EPWDesignCoolingDiffuseHorizontal,      !- Feature Name 35
  Double,                                 !- Feature Data Type 35
  84;                                     !- Feature Value 35

OS:YearDescription,
  {5242cef4-2c60-4268-a870-496dfb2bf616}; !- Handle

OS:Site,
  {9c4a640a-6f69-43a9-a07a-e20d5457717e}, !- Handle
  Denver Intl Ap_CO_USA,                  !- Name
  39.83,                                  !- Latitude {deg}
  -104.65,                                !- Longitude {deg}
  -7,                                     !- Time Zone {hr}
  1650,                                   !- Elevation {m}
  Suburbs;                                !- Terrain

OS:ClimateZones,
  {187be27c-575c-4e67-8c46-2a27005d2e8b}, !- Handle
  ,                                       !- Active Institution
  ,                                       !- Active Year
  ,                                       !- Climate Zone Institution Name 1
  ,                                       !- Climate Zone Document Name 1
  ,                                       !- Climate Zone Document Year 1
  ,                                       !- Climate Zone Value 1
  Building America,                       !- Climate Zone Institution Name 2
  ,                                       !- Climate Zone Document Name 2
  0,                                      !- Climate Zone Document Year 2
  Cold;                                   !- Climate Zone Value 2

OS:Site:WaterMainsTemperature,
  {79300265-09db-4884-b38c-4cbd7d578c62}, !- Handle
  Correlation,                            !- Calculation Method
  ,                                       !- Temperature Schedule Name
  10.8753424657535,                       !- Annual Average Outdoor Air Temperature {C}
  23.1524007936508;                       !- Maximum Difference In Monthly Average Outdoor Air Temperatures {deltaC}

OS:RunPeriodControl:DaylightSavingTime,
  {63931dfa-e76c-4b43-96fa-6647f7a3207e}, !- Handle
  4/7,                                    !- Start Date
  10/26;                                  !- End Date

OS:Site:GroundTemperature:Deep,
  {aa3664de-73c5-4585-84d6-05083467a0cd}, !- Handle
  10.8753424657535,                       !- January Deep Ground Temperature {C}
  10.8753424657535,                       !- February Deep Ground Temperature {C}
  10.8753424657535,                       !- March Deep Ground Temperature {C}
  10.8753424657535,                       !- April Deep Ground Temperature {C}
  10.8753424657535,                       !- May Deep Ground Temperature {C}
  10.8753424657535,                       !- June Deep Ground Temperature {C}
  10.8753424657535,                       !- July Deep Ground Temperature {C}
  10.8753424657535,                       !- August Deep Ground Temperature {C}
  10.8753424657535,                       !- September Deep Ground Temperature {C}
  10.8753424657535,                       !- October Deep Ground Temperature {C}
  10.8753424657535,                       !- November Deep Ground Temperature {C}
  10.8753424657535;                       !- December Deep Ground Temperature {C}

OS:ThermalZone,
  {81e19bfa-728e-422a-9b68-51c1a856ea80}, !- Handle
  living zone,                            !- Name
  ,                                       !- Multiplier
  ,                                       !- Ceiling Height {m}
  ,                                       !- Volume {m3}
  ,                                       !- Floor Area {m2}
  ,                                       !- Zone Inside Convection Algorithm
  ,                                       !- Zone Outside Convection Algorithm
  ,                                       !- Zone Conditioning Equipment List Name
  {17abf106-4d35-44e6-9587-12c2e451e2db}, !- Zone Air Inlet Port List
  {498dee99-f790-4376-a7ee-5d2c432e39c4}, !- Zone Air Exhaust Port List
  {0751f429-d226-4c8b-847d-b0e579d75459}, !- Zone Air Node Name
  {9b2a0872-97ab-4669-b837-d37ce86eb2a9}, !- Zone Return Air Port List
  ,                                       !- Primary Daylighting Control Name
  ,                                       !- Fraction of Zone Controlled by Primary Daylighting Control
  ,                                       !- Secondary Daylighting Control Name
  ,                                       !- Fraction of Zone Controlled by Secondary Daylighting Control
  ,                                       !- Illuminance Map Name
  ,                                       !- Group Rendering Name
  {3ca2b580-13e1-4703-9a1c-2b77ce184e83}, !- Thermostat Name
  No;                                     !- Use Ideal Air Loads

OS:Node,
  {316fe2f7-41ea-461e-b0ba-38a82e1626b0}, !- Handle
  Node 1,                                 !- Name
  {0751f429-d226-4c8b-847d-b0e579d75459}, !- Inlet Port
  ;                                       !- Outlet Port

OS:Connection,
  {0751f429-d226-4c8b-847d-b0e579d75459}, !- Handle
  {54f51b52-a660-4cbb-a6e1-3553137f5382}, !- Name
  {81e19bfa-728e-422a-9b68-51c1a856ea80}, !- Source Object
  11,                                     !- Outlet Port
  {316fe2f7-41ea-461e-b0ba-38a82e1626b0}, !- Target Object
  2;                                      !- Inlet Port

OS:PortList,
  {17abf106-4d35-44e6-9587-12c2e451e2db}, !- Handle
  {a000782a-eb58-458f-b2d7-415f7011ae96}, !- Name
  {81e19bfa-728e-422a-9b68-51c1a856ea80}, !- HVAC Component
  {68584a0a-b189-436c-8961-6fef3e2603cd}, !- Port 1
  {7ecd2387-8128-4017-b6c7-563852174693}; !- Port 2

OS:PortList,
  {498dee99-f790-4376-a7ee-5d2c432e39c4}, !- Handle
  {bd6e596b-fc2e-48c9-9965-3e612b454ecd}, !- Name
  {81e19bfa-728e-422a-9b68-51c1a856ea80}; !- HVAC Component

OS:PortList,
  {9b2a0872-97ab-4669-b837-d37ce86eb2a9}, !- Handle
  {a6cc147a-70ca-413c-97a2-e16cdf81a309}, !- Name
  {81e19bfa-728e-422a-9b68-51c1a856ea80}, !- HVAC Component
  {f4b6ac53-43b6-4c8d-aaae-96e6be24c323}, !- Port 1
  {6dc4e35c-801c-4bbf-b010-5303fa62c13c}; !- Port 2

OS:Sizing:Zone,
  {7eae19ae-077a-4c57-8194-fecd477fc083}, !- Handle
  {81e19bfa-728e-422a-9b68-51c1a856ea80}, !- Zone or ZoneList Name
  SupplyAirTemperature,                   !- Zone Cooling Design Supply Air Temperature Input Method
  14,                                     !- Zone Cooling Design Supply Air Temperature {C}
  11.11,                                  !- Zone Cooling Design Supply Air Temperature Difference {deltaC}
  SupplyAirTemperature,                   !- Zone Heating Design Supply Air Temperature Input Method
  40,                                     !- Zone Heating Design Supply Air Temperature {C}
  11.11,                                  !- Zone Heating Design Supply Air Temperature Difference {deltaC}
  0.0085,                                 !- Zone Cooling Design Supply Air Humidity Ratio {kg-H2O/kg-air}
  0.008,                                  !- Zone Heating Design Supply Air Humidity Ratio {kg-H2O/kg-air}
  ,                                       !- Zone Heating Sizing Factor
  ,                                       !- Zone Cooling Sizing Factor
  DesignDay,                              !- Cooling Design Air Flow Method
  ,                                       !- Cooling Design Air Flow Rate {m3/s}
  ,                                       !- Cooling Minimum Air Flow per Zone Floor Area {m3/s-m2}
  ,                                       !- Cooling Minimum Air Flow {m3/s}
  ,                                       !- Cooling Minimum Air Flow Fraction
  DesignDay,                              !- Heating Design Air Flow Method
  ,                                       !- Heating Design Air Flow Rate {m3/s}
  ,                                       !- Heating Maximum Air Flow per Zone Floor Area {m3/s-m2}
  ,                                       !- Heating Maximum Air Flow {m3/s}
  ,                                       !- Heating Maximum Air Flow Fraction
  ,                                       !- Design Zone Air Distribution Effectiveness in Cooling Mode
  ,                                       !- Design Zone Air Distribution Effectiveness in Heating Mode
  No,                                     !- Account for Dedicated Outdoor Air System
  NeutralSupplyAir,                       !- Dedicated Outdoor Air System Control Strategy
  autosize,                               !- Dedicated Outdoor Air Low Setpoint Temperature for Design {C}
  autosize;                               !- Dedicated Outdoor Air High Setpoint Temperature for Design {C}

OS:ZoneHVAC:EquipmentList,
  {5556c157-48f9-4aa8-990a-4e1eac165d0a}, !- Handle
  Zone HVAC Equipment List 1,             !- Name
  {81e19bfa-728e-422a-9b68-51c1a856ea80}, !- Thermal Zone
  SequentialLoad,                         !- Load Distribution Scheme
  {c40f260f-28d9-4cc2-859e-a8648aecd7db}, !- Zone Equipment 1
  1,                                      !- Zone Equipment Cooling Sequence 1
  1,                                      !- Zone Equipment Heating or No-Load Sequence 1
  ,                                       !- Zone Equipment Sequential Cooling Fraction Schedule Name 1
  ,                                       !- Zone Equipment Sequential Heating Fraction Schedule Name 1
  {9966f837-22d8-4b8c-9392-fca3462a02f5}, !- Zone Equipment 2
  2,                                      !- Zone Equipment Cooling Sequence 2
  2,                                      !- Zone Equipment Heating or No-Load Sequence 2
  ,                                       !- Zone Equipment Sequential Cooling Fraction Schedule Name 2
  ;                                       !- Zone Equipment Sequential Heating Fraction Schedule Name 2

OS:Space,
  {9bb839a1-85eb-4d5e-9564-96a2667584e6}, !- Handle
  living space,                           !- Name
  {27db9902-88c9-48ad-b525-33ebb978e879}, !- Space Type Name
  ,                                       !- Default Construction Set Name
  ,                                       !- Default Schedule Set Name
  ,                                       !- Direction of Relative North {deg}
  ,                                       !- X Origin {m}
  ,                                       !- Y Origin {m}
  ,                                       !- Z Origin {m}
  ,                                       !- Building Story Name
  {81e19bfa-728e-422a-9b68-51c1a856ea80}, !- Thermal Zone Name
  ,                                       !- Part of Total Floor Area
  ,                                       !- Design Specification Outdoor Air Object Name
  {2e27c8d1-ce7c-40f6-a86f-8038537cecc1}; !- Building Unit Name

OS:Surface,
  {79d9f117-e5c6-4a75-bf25-697f66011086}, !- Handle
  Surface 1,                              !- Name
  Floor,                                  !- Surface Type
  {4efda8c2-451a-4dad-81ab-2ba9320a3fdd}, !- Construction Name
  {9bb839a1-85eb-4d5e-9564-96a2667584e6}, !- Space Name
  Surface,                                !- Outside Boundary Condition
  {848b21b8-f960-43bd-81c3-b90515df358a}, !- Outside Boundary Condition Object
  NoSun,                                  !- Sun Exposure
  NoWind,                                 !- Wind Exposure
  ,                                       !- View Factor to Ground
  ,                                       !- Number of Vertices
  0, -9.144, 0,                           !- X,Y,Z Vertex 1 {m}
  0, 0, 0,                                !- X,Y,Z Vertex 2 {m}
  5.08, 0, 0,                             !- X,Y,Z Vertex 3 {m}
  5.08, -9.144, 0;                        !- X,Y,Z Vertex 4 {m}

OS:Surface,
  {52be4562-6dbc-4e28-9d43-332660fa136b}, !- Handle
  Surface 2,                              !- Name
  Wall,                                   !- Surface Type
  {71d79352-4c0a-47d0-868d-e6a52286c777}, !- Construction Name
  {9bb839a1-85eb-4d5e-9564-96a2667584e6}, !- Space Name
  Outdoors,                               !- Outside Boundary Condition
  ,                                       !- Outside Boundary Condition Object
  SunExposed,                             !- Sun Exposure
  WindExposed,                            !- Wind Exposure
  ,                                       !- View Factor to Ground
  ,                                       !- Number of Vertices
  0, 0, 2.4384,                           !- X,Y,Z Vertex 1 {m}
  0, 0, 0,                                !- X,Y,Z Vertex 2 {m}
  0, -9.144, 0,                           !- X,Y,Z Vertex 3 {m}
  0, -9.144, 2.4384;                      !- X,Y,Z Vertex 4 {m}

OS:Surface,
  {9b7c839f-2272-4557-a545-37159747174c}, !- Handle
  Surface 3,                              !- Name
  Wall,                                   !- Surface Type
  {8a4d7287-6ac8-4715-acb1-da2710852f98}, !- Construction Name
  {9bb839a1-85eb-4d5e-9564-96a2667584e6}, !- Space Name
  Adiabatic,                              !- Outside Boundary Condition
  ,                                       !- Outside Boundary Condition Object
  NoSun,                                  !- Sun Exposure
  NoWind,                                 !- Wind Exposure
  ,                                       !- View Factor to Ground
  ,                                       !- Number of Vertices
  5.08, 0, 2.4384,                        !- X,Y,Z Vertex 1 {m}
  5.08, 0, 0,                             !- X,Y,Z Vertex 2 {m}
  0, 0, 0,                                !- X,Y,Z Vertex 3 {m}
  0, 0, 2.4384;                           !- X,Y,Z Vertex 4 {m}

OS:Surface,
  {69e85d8a-e6b6-4ca1-98c4-fe9f2f36eec9}, !- Handle
  Surface 4,                              !- Name
  Wall,                                   !- Surface Type
  {34852457-a816-4243-b9e6-72f45b3fef50}, !- Construction Name
  {9bb839a1-85eb-4d5e-9564-96a2667584e6}, !- Space Name
  Surface,                                !- Outside Boundary Condition
  {8cee0d0f-7d27-477b-8002-03a223a809d8}, !- Outside Boundary Condition Object
  NoSun,                                  !- Sun Exposure
  NoWind,                                 !- Wind Exposure
  ,                                       !- View Factor to Ground
  ,                                       !- Number of Vertices
  5.08, -9.144, 2.4384,                   !- X,Y,Z Vertex 1 {m}
  5.08, -9.144, 0,                        !- X,Y,Z Vertex 2 {m}
  5.08, 0, 0,                             !- X,Y,Z Vertex 3 {m}
  5.08, 0, 2.4384;                        !- X,Y,Z Vertex 4 {m}

OS:Surface,
  {9189c5f2-c483-4cc3-839d-46dffcbd62b3}, !- Handle
  Surface 5,                              !- Name
  Wall,                                   !- Surface Type
  {71d79352-4c0a-47d0-868d-e6a52286c777}, !- Construction Name
  {9bb839a1-85eb-4d5e-9564-96a2667584e6}, !- Space Name
  Outdoors,                               !- Outside Boundary Condition
  ,                                       !- Outside Boundary Condition Object
  SunExposed,                             !- Sun Exposure
  WindExposed,                            !- Wind Exposure
  ,                                       !- View Factor to Ground
  ,                                       !- Number of Vertices
  0, -9.144, 2.4384,                      !- X,Y,Z Vertex 1 {m}
  0, -9.144, 0,                           !- X,Y,Z Vertex 2 {m}
  5.08, -9.144, 0,                        !- X,Y,Z Vertex 3 {m}
  5.08, -9.144, 2.4384;                   !- X,Y,Z Vertex 4 {m}

OS:Surface,
  {87d17102-4659-48c1-b0a6-1cadbccbd698}, !- Handle
  Surface 6,                              !- Name
  RoofCeiling,                            !- Surface Type
  {0de99ce1-cc39-4e5b-ac14-d5f32e5497b7}, !- Construction Name
  {9bb839a1-85eb-4d5e-9564-96a2667584e6}, !- Space Name
  Surface,                                !- Outside Boundary Condition
  {6a1722b0-3b85-46e3-a26d-fa983a4b74c8}, !- Outside Boundary Condition Object
  NoSun,                                  !- Sun Exposure
  NoWind,                                 !- Wind Exposure
  ,                                       !- View Factor to Ground
  ,                                       !- Number of Vertices
  5.08, -9.144, 2.4384,                   !- X,Y,Z Vertex 1 {m}
  5.08, 0, 2.4384,                        !- X,Y,Z Vertex 2 {m}
  0, 0, 2.4384,                           !- X,Y,Z Vertex 3 {m}
  0, -9.144, 2.4384;                      !- X,Y,Z Vertex 4 {m}

OS:SpaceType,
  {27db9902-88c9-48ad-b525-33ebb978e879}, !- Handle
  Space Type 1,                           !- Name
  ,                                       !- Default Construction Set Name
  ,                                       !- Default Schedule Set Name
  ,                                       !- Group Rendering Name
  ,                                       !- Design Specification Outdoor Air Object Name
  ,                                       !- Standards Template
  ,                                       !- Standards Building Type
  living;                                 !- Standards Space Type

OS:ThermalZone,
  {ffc77b58-3545-4467-a993-65b786f1b58c}, !- Handle
  living zone|unit 2,                     !- Name
  ,                                       !- Multiplier
  ,                                       !- Ceiling Height {m}
  ,                                       !- Volume {m3}
  ,                                       !- Floor Area {m2}
  ,                                       !- Zone Inside Convection Algorithm
  ,                                       !- Zone Outside Convection Algorithm
  ,                                       !- Zone Conditioning Equipment List Name
  {2b9e789d-9345-469c-a4e2-9bf6f6cc7879}, !- Zone Air Inlet Port List
  {2b4e6d69-72e0-447f-81ab-38194bfc46aa}, !- Zone Air Exhaust Port List
  {f50b343e-1eec-4807-90fa-efedfdfb7dfd}, !- Zone Air Node Name
  {1380d1d8-e831-416d-8f9d-b30e540d2bab}, !- Zone Return Air Port List
  ,                                       !- Primary Daylighting Control Name
  ,                                       !- Fraction of Zone Controlled by Primary Daylighting Control
  ,                                       !- Secondary Daylighting Control Name
  ,                                       !- Fraction of Zone Controlled by Secondary Daylighting Control
  ,                                       !- Illuminance Map Name
  ,                                       !- Group Rendering Name
  {e9dea7de-7a4f-4ee1-9f83-bd62fbfb4c87}, !- Thermostat Name
  No;                                     !- Use Ideal Air Loads

OS:Node,
  {6b4485dd-bbe1-43f6-b913-1ee7d6706332}, !- Handle
  Node 2,                                 !- Name
  {f50b343e-1eec-4807-90fa-efedfdfb7dfd}, !- Inlet Port
  ;                                       !- Outlet Port

OS:Connection,
  {f50b343e-1eec-4807-90fa-efedfdfb7dfd}, !- Handle
  {8a037e59-c38e-4df8-bea9-7fe748386d74}, !- Name
  {ffc77b58-3545-4467-a993-65b786f1b58c}, !- Source Object
  11,                                     !- Outlet Port
  {6b4485dd-bbe1-43f6-b913-1ee7d6706332}, !- Target Object
  2;                                      !- Inlet Port

OS:PortList,
  {2b9e789d-9345-469c-a4e2-9bf6f6cc7879}, !- Handle
  {0fd38540-b4e4-4e8c-b26b-3490e6d18458}, !- Name
  {ffc77b58-3545-4467-a993-65b786f1b58c}, !- HVAC Component
  {861a1d6e-c658-41ca-9daa-6361e958dd25}, !- Port 1
  {65f3614b-609c-4d96-b516-11c9aba42f0a}; !- Port 2

OS:PortList,
  {2b4e6d69-72e0-447f-81ab-38194bfc46aa}, !- Handle
  {74ee0f9f-3a7b-47fe-8283-15f31993f29e}, !- Name
  {ffc77b58-3545-4467-a993-65b786f1b58c}; !- HVAC Component

OS:PortList,
  {1380d1d8-e831-416d-8f9d-b30e540d2bab}, !- Handle
  {6fedbfdf-9bc0-453f-b4db-e826e558501c}, !- Name
  {ffc77b58-3545-4467-a993-65b786f1b58c}, !- HVAC Component
  {c4117b44-a14f-4a1f-b2f9-1ce39578a3dd}, !- Port 1
  {fd6b875a-9106-4eeb-8122-1b0b97f47968}; !- Port 2

OS:Sizing:Zone,
  {25ce9fae-1d48-4802-8583-ad657b913592}, !- Handle
  {ffc77b58-3545-4467-a993-65b786f1b58c}, !- Zone or ZoneList Name
  SupplyAirTemperature,                   !- Zone Cooling Design Supply Air Temperature Input Method
  14,                                     !- Zone Cooling Design Supply Air Temperature {C}
  11.11,                                  !- Zone Cooling Design Supply Air Temperature Difference {deltaC}
  SupplyAirTemperature,                   !- Zone Heating Design Supply Air Temperature Input Method
  40,                                     !- Zone Heating Design Supply Air Temperature {C}
  11.11,                                  !- Zone Heating Design Supply Air Temperature Difference {deltaC}
  0.0085,                                 !- Zone Cooling Design Supply Air Humidity Ratio {kg-H2O/kg-air}
  0.008,                                  !- Zone Heating Design Supply Air Humidity Ratio {kg-H2O/kg-air}
  ,                                       !- Zone Heating Sizing Factor
  ,                                       !- Zone Cooling Sizing Factor
  DesignDay,                              !- Cooling Design Air Flow Method
  ,                                       !- Cooling Design Air Flow Rate {m3/s}
  ,                                       !- Cooling Minimum Air Flow per Zone Floor Area {m3/s-m2}
  ,                                       !- Cooling Minimum Air Flow {m3/s}
  ,                                       !- Cooling Minimum Air Flow Fraction
  DesignDay,                              !- Heating Design Air Flow Method
  ,                                       !- Heating Design Air Flow Rate {m3/s}
  ,                                       !- Heating Maximum Air Flow per Zone Floor Area {m3/s-m2}
  ,                                       !- Heating Maximum Air Flow {m3/s}
  ,                                       !- Heating Maximum Air Flow Fraction
  ,                                       !- Design Zone Air Distribution Effectiveness in Cooling Mode