!- NOTE: Auto-generated from /test/osw_files/MF_2story_UB_ASHP2_HPWH.osw

OS:Version,
  {9ced4708-4fa0-4505-b8e3-3cf0f2ef6e2b}, !- Handle
  2.9.0;                                  !- Version Identifier

OS:WeatherFile,
  {6a5c8e21-7458-4ccd-a346-894bf9711b8b}, !- Handle
  Denver Intl Ap,                         !- City
  CO,                                     !- State Province Region
  USA,                                    !- Country
  TMY3,                                   !- Data Source
  725650,                                 !- WMO Number
  39.83,                                  !- Latitude {deg}
  -104.65,                                !- Longitude {deg}
  -7,                                     !- Time Zone {hr}
  1650,                                   !- Elevation {m}
  file:../weather/USA_CO_Denver.Intl.AP.725650_TMY3.epw, !- Url
  E23378AA;                               !- Checksum

OS:AdditionalProperties,
  {a609e919-8fb9-472a-b1a8-d90f463234a7}, !- Handle
  {6a5c8e21-7458-4ccd-a346-894bf9711b8b}, !- Object Name
  EPWHeaderCity,                          !- Feature Name 1
  String,                                 !- Feature Data Type 1
  Denver Intl Ap,                         !- Feature Value 1
  EPWHeaderState,                         !- Feature Name 2
  String,                                 !- Feature Data Type 2
  CO,                                     !- Feature Value 2
  EPWHeaderCountry,                       !- Feature Name 3
  String,                                 !- Feature Data Type 3
  USA,                                    !- Feature Value 3
  EPWHeaderDataSource,                    !- Feature Name 4
  String,                                 !- Feature Data Type 4
  TMY3,                                   !- Feature Value 4
  EPWHeaderStation,                       !- Feature Name 5
  String,                                 !- Feature Data Type 5
  725650,                                 !- Feature Value 5
  EPWHeaderLatitude,                      !- Feature Name 6
  Double,                                 !- Feature Data Type 6
  39.829999999999998,                     !- Feature Value 6
  EPWHeaderLongitude,                     !- Feature Name 7
  Double,                                 !- Feature Data Type 7
  -104.65000000000001,                    !- Feature Value 7
  EPWHeaderTimezone,                      !- Feature Name 8
  Double,                                 !- Feature Data Type 8
  -7,                                     !- Feature Value 8
  EPWHeaderAltitude,                      !- Feature Name 9
  Double,                                 !- Feature Data Type 9
  5413.3858267716532,                     !- Feature Value 9
  EPWHeaderLocalPressure,                 !- Feature Name 10
  Double,                                 !- Feature Data Type 10
  0.81937567683596546,                    !- Feature Value 10
  EPWHeaderRecordsPerHour,                !- Feature Name 11
  Double,                                 !- Feature Data Type 11
  0,                                      !- Feature Value 11
  EPWDataAnnualAvgDrybulb,                !- Feature Name 12
  Double,                                 !- Feature Data Type 12
  51.575616438356228,                     !- Feature Value 12
  EPWDataAnnualMinDrybulb,                !- Feature Name 13
  Double,                                 !- Feature Data Type 13
  -2.9200000000000017,                    !- Feature Value 13
  EPWDataAnnualMaxDrybulb,                !- Feature Name 14
  Double,                                 !- Feature Data Type 14
  104,                                    !- Feature Value 14
  EPWDataCDD50F,                          !- Feature Name 15
  Double,                                 !- Feature Data Type 15
  3072.2925000000005,                     !- Feature Value 15
  EPWDataCDD65F,                          !- Feature Name 16
  Double,                                 !- Feature Data Type 16
  883.62000000000035,                     !- Feature Value 16
  EPWDataHDD50F,                          !- Feature Name 17
  Double,                                 !- Feature Data Type 17
  2497.1925000000001,                     !- Feature Value 17
  EPWDataHDD65F,                          !- Feature Name 18
  Double,                                 !- Feature Data Type 18
  5783.5200000000013,                     !- Feature Value 18
  EPWDataAnnualAvgWindspeed,              !- Feature Name 19
  Double,                                 !- Feature Data Type 19
  3.9165296803649667,                     !- Feature Value 19
  EPWDataMonthlyAvgDrybulbs,              !- Feature Name 20
  String,                                 !- Feature Data Type 20
  33.4191935483871&#4431.90142857142857&#4443.02620967741937&#4442.48624999999999&#4459.877741935483854&#4473.57574999999997&#4472.07975806451608&#4472.70008064516134&#4466.49200000000006&#4450.079112903225806&#4437.218250000000005&#4434.582177419354835, !- Feature Value 20
  EPWDataGroundMonthlyTemps,              !- Feature Name 21
  String,                                 !- Feature Data Type 21
  44.08306285945173&#4440.89570904991865&#4440.64045432632048&#4442.153016571250646&#4448.225111118704206&#4454.268919273837525&#4459.508577937551024&#4462.82777283423508&#4463.10975667174995&#4460.41014950381947&#4455.304105212311526&#4449.445696474514364, !- Feature Value 21
  EPWDataWSF,                             !- Feature Name 22
  Double,                                 !- Feature Data Type 22
  0.58999999999999997,                    !- Feature Value 22
  EPWDataMonthlyAvgDailyHighDrybulbs,     !- Feature Name 23
  String,                                 !- Feature Data Type 23
  47.41032258064516&#4446.58642857142857&#4455.15032258064517&#4453.708&#4472.80193548387098&#4488.67600000000002&#4486.1858064516129&#4485.87225806451613&#4482.082&#4463.18064516129033&#4448.73400000000001&#4448.87935483870968, !- Feature Value 23
  EPWDataMonthlyAvgDailyLowDrybulbs,      !- Feature Name 24
  String,                                 !- Feature Data Type 24
  19.347741935483874&#4419.856428571428573&#4430.316129032258065&#4431.112&#4447.41612903225806&#4457.901999999999994&#4459.063870967741934&#4460.956774193548384&#4452.352000000000004&#4438.41612903225806&#4427.002000000000002&#4423.02903225806451, !- Feature Value 24
  EPWDesignHeatingDrybulb,                !- Feature Name 25
  Double,                                 !- Feature Data Type 25
  12.02,                                  !- Feature Value 25
  EPWDesignHeatingWindspeed,              !- Feature Name 26
  Double,                                 !- Feature Data Type 26
  2.8062500000000004,                     !- Feature Value 26
  EPWDesignCoolingDrybulb,                !- Feature Name 27
  Double,                                 !- Feature Data Type 27
  91.939999999999998,                     !- Feature Value 27
  EPWDesignCoolingWetbulb,                !- Feature Name 28
  Double,                                 !- Feature Data Type 28
  59.95131430195849,                      !- Feature Value 28
  EPWDesignCoolingHumidityRatio,          !- Feature Name 29
  Double,                                 !- Feature Data Type 29
  0.0059161086834698092,                  !- Feature Value 29
  EPWDesignCoolingWindspeed,              !- Feature Name 30
  Double,                                 !- Feature Data Type 30
  3.7999999999999989,                     !- Feature Value 30
  EPWDesignDailyTemperatureRange,         !- Feature Name 31
  Double,                                 !- Feature Data Type 31
  24.915483870967748,                     !- Feature Value 31
  EPWDesignDehumidDrybulb,                !- Feature Name 32
  Double,                                 !- Feature Data Type 32
  67.996785714285721,                     !- Feature Value 32
  EPWDesignDehumidHumidityRatio,          !- Feature Name 33
  Double,                                 !- Feature Data Type 33
  0.012133744170488724,                   !- Feature Value 33
  EPWDesignCoolingDirectNormal,           !- Feature Name 34
  Double,                                 !- Feature Data Type 34
  985,                                    !- Feature Value 34
  EPWDesignCoolingDiffuseHorizontal,      !- Feature Name 35
  Double,                                 !- Feature Data Type 35
  84;                                     !- Feature Value 35

OS:YearDescription,
  {ea3286c2-c721-4f03-98c4-1c5645058b7a}; !- Handle

OS:Site,
  {2dce6137-f1d5-4a29-b1aa-3cea070c70b9}, !- Handle
  Denver Intl Ap_CO_USA,                  !- Name
  39.83,                                  !- Latitude {deg}
  -104.65,                                !- Longitude {deg}
  -7,                                     !- Time Zone {hr}
  1650,                                   !- Elevation {m}
  Suburbs;                                !- Terrain

OS:ClimateZones,
  {5376dc98-0ac9-4e5c-a429-9aca882b4c93}, !- Handle
  ,                                       !- Active Institution
  ,                                       !- Active Year
  ,                                       !- Climate Zone Institution Name 1
  ,                                       !- Climate Zone Document Name 1
  ,                                       !- Climate Zone Document Year 1
  ,                                       !- Climate Zone Value 1
  Building America,                       !- Climate Zone Institution Name 2
  ,                                       !- Climate Zone Document Name 2
  0,                                      !- Climate Zone Document Year 2
  Cold;                                   !- Climate Zone Value 2

OS:Site:WaterMainsTemperature,
  {92387694-be57-4526-b028-3ef124356872}, !- Handle
  Correlation,                            !- Calculation Method
  ,                                       !- Temperature Schedule Name
  10.8753424657535,                       !- Annual Average Outdoor Air Temperature {C}
  23.1524007936508;                       !- Maximum Difference In Monthly Average Outdoor Air Temperatures {deltaC}

OS:RunPeriodControl:DaylightSavingTime,
  {0f35ac17-f3fc-4ea9-85d2-28bf0a35ee33}, !- Handle
  4/7,                                    !- Start Date
  10/26;                                  !- End Date

OS:Site:GroundTemperature:Deep,
  {ba48b391-39bd-41f2-acd9-2aeeca4c2624}, !- Handle
  10.8753424657535,                       !- January Deep Ground Temperature {C}
  10.8753424657535,                       !- February Deep Ground Temperature {C}
  10.8753424657535,                       !- March Deep Ground Temperature {C}
  10.8753424657535,                       !- April Deep Ground Temperature {C}
  10.8753424657535,                       !- May Deep Ground Temperature {C}
  10.8753424657535,                       !- June Deep Ground Temperature {C}
  10.8753424657535,                       !- July Deep Ground Temperature {C}
  10.8753424657535,                       !- August Deep Ground Temperature {C}
  10.8753424657535,                       !- September Deep Ground Temperature {C}
  10.8753424657535,                       !- October Deep Ground Temperature {C}
  10.8753424657535,                       !- November Deep Ground Temperature {C}
  10.8753424657535;                       !- December Deep Ground Temperature {C}

OS:ThermalZone,
  {b74ffefc-b264-4213-be5d-2092e2332f67}, !- Handle
  living zone,                            !- Name
  ,                                       !- Multiplier
  ,                                       !- Ceiling Height {m}
  ,                                       !- Volume {m3}
  ,                                       !- Floor Area {m2}
  ,                                       !- Zone Inside Convection Algorithm
  ,                                       !- Zone Outside Convection Algorithm
  ,                                       !- Zone Conditioning Equipment List Name
  {79e46696-300a-4d69-bf47-bda6a61e2e9d}, !- Zone Air Inlet Port List
  {1d5b28fe-2b0c-4b6a-8043-c858c7b33827}, !- Zone Air Exhaust Port List
  {ac74149d-e80d-4282-9ff0-211b40ab876c}, !- Zone Air Node Name
  {9fd1278c-6770-42da-a40e-a9b0af138cab}, !- Zone Return Air Port List
  ,                                       !- Primary Daylighting Control Name
  ,                                       !- Fraction of Zone Controlled by Primary Daylighting Control
  ,                                       !- Secondary Daylighting Control Name
  ,                                       !- Fraction of Zone Controlled by Secondary Daylighting Control
  ,                                       !- Illuminance Map Name
  ,                                       !- Group Rendering Name
  {245bb56f-dd8f-4cc6-a254-b0e7a4dcafb2}, !- Thermostat Name
  No;                                     !- Use Ideal Air Loads

OS:Node,
  {8dfd80b2-179c-4b5e-b228-77f7e4d9f79c}, !- Handle
  Node 1,                                 !- Name
  {ac74149d-e80d-4282-9ff0-211b40ab876c}, !- Inlet Port
  ;                                       !- Outlet Port

OS:Connection,
  {ac74149d-e80d-4282-9ff0-211b40ab876c}, !- Handle
  {3f3af51b-7778-4974-bc8a-8e7ed91fead5}, !- Name
  {b74ffefc-b264-4213-be5d-2092e2332f67}, !- Source Object
  11,                                     !- Outlet Port
  {8dfd80b2-179c-4b5e-b228-77f7e4d9f79c}, !- Target Object
  2;                                      !- Inlet Port

OS:PortList,
  {79e46696-300a-4d69-bf47-bda6a61e2e9d}, !- Handle
  {88773eb6-a50a-4865-b386-3da32c0128e2}, !- Name
  {b74ffefc-b264-4213-be5d-2092e2332f67}, !- HVAC Component
  {f153686a-b305-40ae-b87c-d1c8b56f8193}, !- Port 1
  {a1c5d0a6-e2e7-4f1e-a6ca-b64d57b2c7a3}; !- Port 2

OS:PortList,
  {1d5b28fe-2b0c-4b6a-8043-c858c7b33827}, !- Handle
  {c8bd11cb-b7cf-4fa7-a35e-a638fb495cc9}, !- Name
  {b74ffefc-b264-4213-be5d-2092e2332f67}; !- HVAC Component

OS:PortList,
  {9fd1278c-6770-42da-a40e-a9b0af138cab}, !- Handle
  {383eec0e-bdbe-4303-9b3a-56e106222b11}, !- Name
  {b74ffefc-b264-4213-be5d-2092e2332f67}, !- HVAC Component
  {a20a0aec-7ca7-4e33-aa7b-de5720a17ad8}, !- Port 1
  {289053af-3911-41dc-aede-39745eb43fd4}; !- Port 2

OS:Sizing:Zone,
  {909fb3e5-b163-443e-a67a-a892233647a9}, !- Handle
  {b74ffefc-b264-4213-be5d-2092e2332f67}, !- Zone or ZoneList Name
  SupplyAirTemperature,                   !- Zone Cooling Design Supply Air Temperature Input Method
  14,                                     !- Zone Cooling Design Supply Air Temperature {C}
  11.11,                                  !- Zone Cooling Design Supply Air Temperature Difference {deltaC}
  SupplyAirTemperature,                   !- Zone Heating Design Supply Air Temperature Input Method
  40,                                     !- Zone Heating Design Supply Air Temperature {C}
  11.11,                                  !- Zone Heating Design Supply Air Temperature Difference {deltaC}
  0.0085,                                 !- Zone Cooling Design Supply Air Humidity Ratio {kg-H2O/kg-air}
  0.008,                                  !- Zone Heating Design Supply Air Humidity Ratio {kg-H2O/kg-air}
  ,                                       !- Zone Heating Sizing Factor
  ,                                       !- Zone Cooling Sizing Factor
  DesignDay,                              !- Cooling Design Air Flow Method
  ,                                       !- Cooling Design Air Flow Rate {m3/s}
  ,                                       !- Cooling Minimum Air Flow per Zone Floor Area {m3/s-m2}
  ,                                       !- Cooling Minimum Air Flow {m3/s}
  ,                                       !- Cooling Minimum Air Flow Fraction
  DesignDay,                              !- Heating Design Air Flow Method
  ,                                       !- Heating Design Air Flow Rate {m3/s}
  ,                                       !- Heating Maximum Air Flow per Zone Floor Area {m3/s-m2}
  ,                                       !- Heating Maximum Air Flow {m3/s}
  ,                                       !- Heating Maximum Air Flow Fraction
  ,                                       !- Design Zone Air Distribution Effectiveness in Cooling Mode
  ,                                       !- Design Zone Air Distribution Effectiveness in Heating Mode
  No,                                     !- Account for Dedicated Outdoor Air System
  NeutralSupplyAir,                       !- Dedicated Outdoor Air System Control Strategy
  autosize,                               !- Dedicated Outdoor Air Low Setpoint Temperature for Design {C}
  autosize;                               !- Dedicated Outdoor Air High Setpoint Temperature for Design {C}

OS:ZoneHVAC:EquipmentList,
  {5cca7d93-c921-4334-8715-ae65b03d38a5}, !- Handle
  Zone HVAC Equipment List 1,             !- Name
  {b74ffefc-b264-4213-be5d-2092e2332f67}, !- Thermal Zone
  SequentialLoad,                         !- Load Distribution Scheme
  {4dcdbc26-74bc-40e4-ab9f-72fa69b9ac37}, !- Zone Equipment 1
  1,                                      !- Zone Equipment Cooling Sequence 1
  1,                                      !- Zone Equipment Heating or No-Load Sequence 1
  ,                                       !- Zone Equipment Sequential Cooling Fraction Schedule Name 1
  ,                                       !- Zone Equipment Sequential Heating Fraction Schedule Name 1
  {e660ad7b-bd5b-4963-8025-83418a752303}, !- Zone Equipment 2
  2,                                      !- Zone Equipment Cooling Sequence 2
  2,                                      !- Zone Equipment Heating or No-Load Sequence 2
  ,                                       !- Zone Equipment Sequential Cooling Fraction Schedule Name 2
  ;                                       !- Zone Equipment Sequential Heating Fraction Schedule Name 2

OS:Space,
  {2d142204-9781-467e-845c-b2c0760aa9d1}, !- Handle
  living space,                           !- Name
  {b83a947c-36b2-4e4e-91af-ec7f2b957d3d}, !- Space Type Name
  ,                                       !- Default Construction Set Name
  ,                                       !- Default Schedule Set Name
  ,                                       !- Direction of Relative North {deg}
  ,                                       !- X Origin {m}
  ,                                       !- Y Origin {m}
  ,                                       !- Z Origin {m}
  {4dc1d4c7-b234-4fe7-a1d3-5f2b0303270a}, !- Building Story Name
  {b74ffefc-b264-4213-be5d-2092e2332f67}, !- Thermal Zone Name
  ,                                       !- Part of Total Floor Area
  ,                                       !- Design Specification Outdoor Air Object Name
  {18d72239-f005-4caf-bd8a-50f4526c65e5}; !- Building Unit Name

OS:Surface,
  {920ae117-117f-4a66-a98f-16d06deb1f34}, !- Handle
  Surface 1,                              !- Name
  Floor,                                  !- Surface Type
  {133f4423-8ddc-4d7c-922d-a5107ba65f8d}, !- Construction Name
  {2d142204-9781-467e-845c-b2c0760aa9d1}, !- Space Name
  Surface,                                !- Outside Boundary Condition
  {5eb9df0a-c097-49cc-88f2-0d7a6f8ee996}, !- Outside Boundary Condition Object
  NoSun,                                  !- Sun Exposure
  NoWind,                                 !- Wind Exposure
  ,                                       !- View Factor to Ground
  ,                                       !- Number of Vertices
  0, -9.144, 0,                           !- X,Y,Z Vertex 1 {m}
  0, 0, 0,                                !- X,Y,Z Vertex 2 {m}
  5.08, 0, 0,                             !- X,Y,Z Vertex 3 {m}
  5.08, -9.144, 0;                        !- X,Y,Z Vertex 4 {m}

OS:Surface,
  {fa16612b-f28f-4e7b-be0e-1c9f058b7d86}, !- Handle
  Surface 2,                              !- Name
  Wall,                                   !- Surface Type
  {532fd2c8-aa0e-4280-a133-0e0f6787928c}, !- Construction Name
  {2d142204-9781-467e-845c-b2c0760aa9d1}, !- Space Name
  Outdoors,                               !- Outside Boundary Condition
  ,                                       !- Outside Boundary Condition Object
  SunExposed,                             !- Sun Exposure
  WindExposed,                            !- Wind Exposure
  ,                                       !- View Factor to Ground
  ,                                       !- Number of Vertices
  0, 0, 2.4384,                           !- X,Y,Z Vertex 1 {m}
  0, 0, 0,                                !- X,Y,Z Vertex 2 {m}
  0, -9.144, 0,                           !- X,Y,Z Vertex 3 {m}
  0, -9.144, 2.4384;                      !- X,Y,Z Vertex 4 {m}

OS:Surface,
  {2a4eb92c-f702-4f87-ac4b-36ecab6f7f23}, !- Handle
  Surface 3,                              !- Name
  Wall,                                   !- Surface Type
  {f6825f4d-4b66-4609-9db3-83175c3576f9}, !- Construction Name
  {2d142204-9781-467e-845c-b2c0760aa9d1}, !- Space Name
  Adiabatic,                              !- Outside Boundary Condition
  ,                                       !- Outside Boundary Condition Object
  NoSun,                                  !- Sun Exposure
  NoWind,                                 !- Wind Exposure
  ,                                       !- View Factor to Ground
  ,                                       !- Number of Vertices
  5.08, 0, 2.4384,                        !- X,Y,Z Vertex 1 {m}
  5.08, 0, 0,                             !- X,Y,Z Vertex 2 {m}
  0, 0, 0,                                !- X,Y,Z Vertex 3 {m}
  0, 0, 2.4384;                           !- X,Y,Z Vertex 4 {m}

OS:Surface,
  {45492256-861d-4399-87fe-cf7765e2b17e}, !- Handle
  Surface 4,                              !- Name
  Wall,                                   !- Surface Type
  {47741562-c72f-4d5e-aad3-2b3e040ea5e3}, !- Construction Name
  {2d142204-9781-467e-845c-b2c0760aa9d1}, !- Space Name
  Surface,                                !- Outside Boundary Condition
  {a2a24299-1754-40a1-ad85-7e4639ddb2fa}, !- Outside Boundary Condition Object
  NoSun,                                  !- Sun Exposure
  NoWind,                                 !- Wind Exposure
  ,                                       !- View Factor to Ground
  ,                                       !- Number of Vertices
  5.08, -9.144, 2.4384,                   !- X,Y,Z Vertex 1 {m}
  5.08, -9.144, 0,                        !- X,Y,Z Vertex 2 {m}
  5.08, 0, 0,                             !- X,Y,Z Vertex 3 {m}
  5.08, 0, 2.4384;                        !- X,Y,Z Vertex 4 {m}

OS:Surface,
  {24659899-ba5d-4673-9d12-efb34e7c9dc9}, !- Handle
  Surface 5,                              !- Name
  Wall,                                   !- Surface Type
  {532fd2c8-aa0e-4280-a133-0e0f6787928c}, !- Construction Name
  {2d142204-9781-467e-845c-b2c0760aa9d1}, !- Space Name
  Outdoors,                               !- Outside Boundary Condition
  ,                                       !- Outside Boundary Condition Object
  SunExposed,                             !- Sun Exposure
  WindExposed,                            !- Wind Exposure
  ,                                       !- View Factor to Ground
  ,                                       !- Number of Vertices
  0, -9.144, 2.4384,                      !- X,Y,Z Vertex 1 {m}
  0, -9.144, 0,                           !- X,Y,Z Vertex 2 {m}
  5.08, -9.144, 0,                        !- X,Y,Z Vertex 3 {m}
  5.08, -9.144, 2.4384;                   !- X,Y,Z Vertex 4 {m}

OS:Surface,
  {9df0f2e2-74cd-49c6-8354-ff65582cc03e}, !- Handle
  Surface 6,                              !- Name
  RoofCeiling,                            !- Surface Type
  {cb8cb710-d8b3-4c1a-b8c1-dffa7f2c8170}, !- Construction Name
  {2d142204-9781-467e-845c-b2c0760aa9d1}, !- Space Name
  Surface,                                !- Outside Boundary Condition
  {84c64643-4df2-4156-ba36-a8305c58786f}, !- Outside Boundary Condition Object
  NoSun,                                  !- Sun Exposure
  NoWind,                                 !- Wind Exposure
  ,                                       !- View Factor to Ground
  ,                                       !- Number of Vertices
  5.08, -9.144, 2.4384,                   !- X,Y,Z Vertex 1 {m}
  5.08, 0, 2.4384,                        !- X,Y,Z Vertex 2 {m}
  0, 0, 2.4384,                           !- X,Y,Z Vertex 3 {m}
  0, -9.144, 2.4384;                      !- X,Y,Z Vertex 4 {m}

OS:SpaceType,
  {b83a947c-36b2-4e4e-91af-ec7f2b957d3d}, !- Handle
  Space Type 1,                           !- Name
  ,                                       !- Default Construction Set Name
  ,                                       !- Default Schedule Set Name
  ,                                       !- Group Rendering Name
  ,                                       !- Design Specification Outdoor Air Object Name
  ,                                       !- Standards Template
  ,                                       !- Standards Building Type
  living;                                 !- Standards Space Type

OS:ThermalZone,
  {caa1addc-6d21-4f8f-91b2-366f99870af1}, !- Handle
  living zone|unit 2,                     !- Name
  ,                                       !- Multiplier
  ,                                       !- Ceiling Height {m}
  ,                                       !- Volume {m3}
  ,                                       !- Floor Area {m2}
  ,                                       !- Zone Inside Convection Algorithm
  ,                                       !- Zone Outside Convection Algorithm
  ,                                       !- Zone Conditioning Equipment List Name
  {0d132014-709b-4590-b42d-9e9a5acfbb37}, !- Zone Air Inlet Port List
  {39825782-1318-42ca-b3bf-e49fc6122ce0}, !- Zone Air Exhaust Port List
  {9a11a5a4-a8d6-4506-942f-f50dc7890f22}, !- Zone Air Node Name
  {8d0e3289-9c94-4f3e-afba-64cdfb39f907}, !- Zone Return Air Port List
  ,                                       !- Primary Daylighting Control Name
  ,                                       !- Fraction of Zone Controlled by Primary Daylighting Control
  ,                                       !- Secondary Daylighting Control Name
  ,                                       !- Fraction of Zone Controlled by Secondary Daylighting Control
  ,                                       !- Illuminance Map Name
  ,                                       !- Group Rendering Name
  {ecc77b1d-d17c-463a-975f-d225994831f6}, !- Thermostat Name
  No;                                     !- Use Ideal Air Loads

OS:Node,
  {5eb0206a-92e0-46b0-a77b-092932fb2de1}, !- Handle
  Node 2,                                 !- Name
  {9a11a5a4-a8d6-4506-942f-f50dc7890f22}, !- Inlet Port
  ;                                       !- Outlet Port

OS:Connection,
  {9a11a5a4-a8d6-4506-942f-f50dc7890f22}, !- Handle
  {64b6ac2d-c6ce-4db0-98a3-47c0a554808e}, !- Name
  {caa1addc-6d21-4f8f-91b2-366f99870af1}, !- Source Object
  11,                                     !- Outlet Port
  {5eb0206a-92e0-46b0-a77b-092932fb2de1}, !- Target Object
  2;                                      !- Inlet Port

OS:PortList,
  {0d132014-709b-4590-b42d-9e9a5acfbb37}, !- Handle
  {3c83230d-bd14-4e4b-a7c9-0e215890af27}, !- Name
  {caa1addc-6d21-4f8f-91b2-366f99870af1}, !- HVAC Component
  {87ad05f4-6184-4644-8122-e571e426b441}, !- Port 1
  {731b40ff-d74c-476a-8a07-88542bf69a71}; !- Port 2

OS:PortList,
  {39825782-1318-42ca-b3bf-e49fc6122ce0}, !- Handle
  {6367eb52-578b-4e79-9e99-33e938777ca6}, !- Name
  {caa1addc-6d21-4f8f-91b2-366f99870af1}; !- HVAC Component

OS:PortList,
  {8d0e3289-9c94-4f3e-afba-64cdfb39f907}, !- Handle
  {9bf2a338-1fef-410a-ba00-3625b65e8283}, !- Name
  {caa1addc-6d21-4f8f-91b2-366f99870af1}, !- HVAC Component
  {a9cfd28d-019f-408f-96e4-18b37360b5e7}, !- Port 1
  {4492ab7d-48cf-47d8-a128-6420b80fbb19}; !- Port 2

OS:Sizing:Zone,
  {aa1f55ae-c432-4e94-88b7-46472ebf3e87}, !- Handle
  {caa1addc-6d21-4f8f-91b2-366f99870af1}, !- Zone or ZoneList Name
  SupplyAirTemperature,                   !- Zone Cooling Design Supply Air Temperature Input Method
  14,                                     !- Zone Cooling Design Supply Air Temperature {C}
  11.11,                                  !- Zone Cooling Design Supply Air Temperature Difference {deltaC}
  SupplyAirTemperature,                   !- Zone Heating Design Supply Air Temperature Input Method
  40,                                     !- Zone Heating Design Supply Air Temperature {C}
  11.11,                                  !- Zone Heating Design Supply Air Temperature Difference {deltaC}
  0.0085,                                 !- Zone Cooling Design Supply Air Humidity Ratio {kg-H2O/kg-air}
  0.008,                                  !- Zone Heating Design Supply Air Humidity Ratio {kg-H2O/kg-air}
  ,                                       !- Zone Heating Sizing Factor
  ,                                       !- Zone Cooling Sizing Factor
  DesignDay,                              !- Cooling Design Air Flow Method
  ,                                       !- Cooling Design Air Flow Rate {m3/s}
  ,                                       !- Cooling Minimum Air Flow per Zone Floor Area {m3/s-m2}
  ,                                       !- Cooling Minimum Air Flow {m3/s}
  ,                                       !- Cooling Minimum Air Flow Fraction
  DesignDay,                              !- Heating Design Air Flow Method
  ,                                       !- Heating Design Air Flow Rate {m3/s}
  ,                                       !- Heating Maximum Air Flow per Zone Floor Area {m3/s-m2}
  ,                                       !- Heating Maximum Air Flow {m3/s}
  ,                                       !- Heating Maximum Air Flow Fraction
  ,                                       !- Design Zone Air Distribution Effectiveness in Cooling Mode