!- NOTE: Auto-generated from /test/osw_files/MF_2story_UB_FuelBoiler_AC1_FuelTankWH_Collapsed.osw

OS:Version,
  {59594655-588c-4d2c-8ed9-114bdfbdba6f}, !- Handle
  2.8.1;                                  !- Version Identifier

OS:WeatherFile,
  {402ea68a-ec19-422d-9500-80c833518517}, !- Handle
  Denver Intl Ap,                         !- City
  CO,                                     !- State Province Region
  USA,                                    !- Country
  TMY3,                                   !- Data Source
  725650,                                 !- WMO Number
  39.83,                                  !- Latitude {deg}
  -104.65,                                !- Longitude {deg}
  -7,                                     !- Time Zone {hr}
  1650,                                   !- Elevation {m}
  file:../weather/USA_CO_Denver.Intl.AP.725650_TMY3.epw, !- Url
  E23378AA;                               !- Checksum

OS:AdditionalProperties,
  {63dd99e8-0078-4f57-9edd-e19c4571cdfb}, !- Handle
  {402ea68a-ec19-422d-9500-80c833518517}, !- Object Name
  EPWHeaderCity,                          !- Feature Name 1
  String,                                 !- Feature Data Type 1
  Denver Intl Ap,                         !- Feature Value 1
  EPWHeaderState,                         !- Feature Name 2
  String,                                 !- Feature Data Type 2
  CO,                                     !- Feature Value 2
  EPWHeaderCountry,                       !- Feature Name 3
  String,                                 !- Feature Data Type 3
  USA,                                    !- Feature Value 3
  EPWHeaderDataSource,                    !- Feature Name 4
  String,                                 !- Feature Data Type 4
  TMY3,                                   !- Feature Value 4
  EPWHeaderStation,                       !- Feature Name 5
  String,                                 !- Feature Data Type 5
  725650,                                 !- Feature Value 5
  EPWHeaderLatitude,                      !- Feature Name 6
  Double,                                 !- Feature Data Type 6
  39.829999999999998,                     !- Feature Value 6
  EPWHeaderLongitude,                     !- Feature Name 7
  Double,                                 !- Feature Data Type 7
  -104.65000000000001,                    !- Feature Value 7
  EPWHeaderTimezone,                      !- Feature Name 8
  Double,                                 !- Feature Data Type 8
  -7,                                     !- Feature Value 8
  EPWHeaderAltitude,                      !- Feature Name 9
  Double,                                 !- Feature Data Type 9
  5413.3858267716532,                     !- Feature Value 9
  EPWHeaderLocalPressure,                 !- Feature Name 10
  Double,                                 !- Feature Data Type 10
  0.81937567683596546,                    !- Feature Value 10
  EPWHeaderRecordsPerHour,                !- Feature Name 11
  Double,                                 !- Feature Data Type 11
  0,                                      !- Feature Value 11
  EPWDataAnnualAvgDrybulb,                !- Feature Name 12
  Double,                                 !- Feature Data Type 12
  51.575616438356228,                     !- Feature Value 12
  EPWDataAnnualMinDrybulb,                !- Feature Name 13
  Double,                                 !- Feature Data Type 13
  -2.9200000000000017,                    !- Feature Value 13
  EPWDataAnnualMaxDrybulb,                !- Feature Name 14
  Double,                                 !- Feature Data Type 14
  104,                                    !- Feature Value 14
  EPWDataCDD50F,                          !- Feature Name 15
  Double,                                 !- Feature Data Type 15
  3072.2925000000005,                     !- Feature Value 15
  EPWDataCDD65F,                          !- Feature Name 16
  Double,                                 !- Feature Data Type 16
  883.62000000000035,                     !- Feature Value 16
  EPWDataHDD50F,                          !- Feature Name 17
  Double,                                 !- Feature Data Type 17
  2497.1925000000001,                     !- Feature Value 17
  EPWDataHDD65F,                          !- Feature Name 18
  Double,                                 !- Feature Data Type 18
  5783.5200000000013,                     !- Feature Value 18
  EPWDataAnnualAvgWindspeed,              !- Feature Name 19
  Double,                                 !- Feature Data Type 19
  3.9165296803649667,                     !- Feature Value 19
  EPWDataMonthlyAvgDrybulbs,              !- Feature Name 20
  String,                                 !- Feature Data Type 20
  33.4191935483871&#4431.90142857142857&#4443.02620967741937&#4442.48624999999999&#4459.877741935483854&#4473.57574999999997&#4472.07975806451608&#4472.70008064516134&#4466.49200000000006&#4450.079112903225806&#4437.218250000000005&#4434.582177419354835, !- Feature Value 20
  EPWDataGroundMonthlyTemps,              !- Feature Name 21
  String,                                 !- Feature Data Type 21
  44.08306285945173&#4440.89570904991865&#4440.64045432632048&#4442.153016571250646&#4448.225111118704206&#4454.268919273837525&#4459.508577937551024&#4462.82777283423508&#4463.10975667174995&#4460.41014950381947&#4455.304105212311526&#4449.445696474514364, !- Feature Value 21
  EPWDataWSF,                             !- Feature Name 22
  Double,                                 !- Feature Data Type 22
  0.58999999999999997,                    !- Feature Value 22
  EPWDataMonthlyAvgDailyHighDrybulbs,     !- Feature Name 23
  String,                                 !- Feature Data Type 23
  47.41032258064516&#4446.58642857142857&#4455.15032258064517&#4453.708&#4472.80193548387098&#4488.67600000000002&#4486.1858064516129&#4485.87225806451613&#4482.082&#4463.18064516129033&#4448.73400000000001&#4448.87935483870968, !- Feature Value 23
  EPWDataMonthlyAvgDailyLowDrybulbs,      !- Feature Name 24
  String,                                 !- Feature Data Type 24
  19.347741935483874&#4419.856428571428573&#4430.316129032258065&#4431.112&#4447.41612903225806&#4457.901999999999994&#4459.063870967741934&#4460.956774193548384&#4452.352000000000004&#4438.41612903225806&#4427.002000000000002&#4423.02903225806451, !- Feature Value 24
  EPWDesignHeatingDrybulb,                !- Feature Name 25
  Double,                                 !- Feature Data Type 25
  12.02,                                  !- Feature Value 25
  EPWDesignHeatingWindspeed,              !- Feature Name 26
  Double,                                 !- Feature Data Type 26
  2.8062500000000004,                     !- Feature Value 26
  EPWDesignCoolingDrybulb,                !- Feature Name 27
  Double,                                 !- Feature Data Type 27
  91.939999999999998,                     !- Feature Value 27
  EPWDesignCoolingWetbulb,                !- Feature Name 28
  Double,                                 !- Feature Data Type 28
  59.95131430195849,                      !- Feature Value 28
  EPWDesignCoolingHumidityRatio,          !- Feature Name 29
  Double,                                 !- Feature Data Type 29
  0.0059161086834698092,                  !- Feature Value 29
  EPWDesignCoolingWindspeed,              !- Feature Name 30
  Double,                                 !- Feature Data Type 30
  3.7999999999999989,                     !- Feature Value 30
  EPWDesignDailyTemperatureRange,         !- Feature Name 31
  Double,                                 !- Feature Data Type 31
  24.915483870967748,                     !- Feature Value 31
  EPWDesignDehumidDrybulb,                !- Feature Name 32
  Double,                                 !- Feature Data Type 32
  67.996785714285721,                     !- Feature Value 32
  EPWDesignDehumidHumidityRatio,          !- Feature Name 33
  Double,                                 !- Feature Data Type 33
  0.012133744170488724,                   !- Feature Value 33
  EPWDesignCoolingDirectNormal,           !- Feature Name 34
  Double,                                 !- Feature Data Type 34
  985,                                    !- Feature Value 34
  EPWDesignCoolingDiffuseHorizontal,      !- Feature Name 35
  Double,                                 !- Feature Data Type 35
  84;                                     !- Feature Value 35

OS:YearDescription,
  {10e2ad0a-d1c1-407f-89b6-8c485fafa803}; !- Handle

OS:Site,
  {d2e2f852-8c89-4d76-9983-9262fe0d7562}, !- Handle
  Denver Intl Ap_CO_USA,                  !- Name
  39.83,                                  !- Latitude {deg}
  -104.65,                                !- Longitude {deg}
  -7,                                     !- Time Zone {hr}
  1650,                                   !- Elevation {m}
  Suburbs;                                !- Terrain

OS:ClimateZones,
  {1e71af81-f40b-4aa9-8b17-dcd3d0fed99e}, !- Handle
  ,                                       !- Active Institution
  ,                                       !- Active Year
  ,                                       !- Climate Zone Institution Name 1
  ,                                       !- Climate Zone Document Name 1
  ,                                       !- Climate Zone Document Year 1
  ,                                       !- Climate Zone Value 1
  Building America,                       !- Climate Zone Institution Name 2
  ,                                       !- Climate Zone Document Name 2
  0,                                      !- Climate Zone Document Year 2
  Cold;                                   !- Climate Zone Value 2

OS:Site:WaterMainsTemperature,
  {94e6ad33-0664-4184-8638-6d4e2a0b6e27}, !- Handle
  Correlation,                            !- Calculation Method
  ,                                       !- Temperature Schedule Name
  10.8753424657535,                       !- Annual Average Outdoor Air Temperature {C}
  23.1524007936508;                       !- Maximum Difference In Monthly Average Outdoor Air Temperatures {deltaC}

OS:RunPeriodControl:DaylightSavingTime,
  {26334da3-c23e-4ac5-af70-c324a53f1ca0}, !- Handle
  4/7,                                    !- Start Date
  10/26;                                  !- End Date

OS:Site:GroundTemperature:Deep,
  {e70023f0-6b09-4a47-9cee-5d303bad75be}, !- Handle
  10.8753424657535,                       !- January Deep Ground Temperature {C}
  10.8753424657535,                       !- February Deep Ground Temperature {C}
  10.8753424657535,                       !- March Deep Ground Temperature {C}
  10.8753424657535,                       !- April Deep Ground Temperature {C}
  10.8753424657535,                       !- May Deep Ground Temperature {C}
  10.8753424657535,                       !- June Deep Ground Temperature {C}
  10.8753424657535,                       !- July Deep Ground Temperature {C}
  10.8753424657535,                       !- August Deep Ground Temperature {C}
  10.8753424657535,                       !- September Deep Ground Temperature {C}
  10.8753424657535,                       !- October Deep Ground Temperature {C}
  10.8753424657535,                       !- November Deep Ground Temperature {C}
  10.8753424657535;                       !- December Deep Ground Temperature {C}

OS:ThermalZone,
  {7e68568b-0639-4822-ade5-64fe1c51089b}, !- Handle
  living zone,                            !- Name
  ,                                       !- Multiplier
  ,                                       !- Ceiling Height {m}
  ,                                       !- Volume {m3}
  ,                                       !- Floor Area {m2}
  ,                                       !- Zone Inside Convection Algorithm
  ,                                       !- Zone Outside Convection Algorithm
  ,                                       !- Zone Conditioning Equipment List Name
  {b633fe9f-3dad-4f8b-9221-5763d9b0aeee}, !- Zone Air Inlet Port List
  {030e8b46-393c-4aa5-ac2c-2da7f1b8ead8}, !- Zone Air Exhaust Port List
  {f3a7d497-ca7f-4f44-902d-fce08960de26}, !- Zone Air Node Name
  {78cca094-b6d3-4584-a636-02cfe02777cc}, !- Zone Return Air Port List
  ,                                       !- Primary Daylighting Control Name
  ,                                       !- Fraction of Zone Controlled by Primary Daylighting Control
  ,                                       !- Secondary Daylighting Control Name
  ,                                       !- Fraction of Zone Controlled by Secondary Daylighting Control
  ,                                       !- Illuminance Map Name
  ,                                       !- Group Rendering Name
  {903f5664-f830-4f49-a308-adaa233c7481}, !- Thermostat Name
  No;                                     !- Use Ideal Air Loads

OS:Node,
  {ade8facd-41db-4cfc-b71c-34a1b97c8eaf}, !- Handle
  Node 1,                                 !- Name
  {f3a7d497-ca7f-4f44-902d-fce08960de26}, !- Inlet Port
  ;                                       !- Outlet Port

OS:Connection,
  {f3a7d497-ca7f-4f44-902d-fce08960de26}, !- Handle
  {6f051de1-c948-472f-b20a-7c62d78a2a07}, !- Name
  {7e68568b-0639-4822-ade5-64fe1c51089b}, !- Source Object
  11,                                     !- Outlet Port
  {ade8facd-41db-4cfc-b71c-34a1b97c8eaf}, !- Target Object
  2;                                      !- Inlet Port

OS:PortList,
  {b633fe9f-3dad-4f8b-9221-5763d9b0aeee}, !- Handle
  {88b2f909-3c03-4b7b-b500-2867117ec0b6}, !- Name
  {7e68568b-0639-4822-ade5-64fe1c51089b}, !- HVAC Component
  {8da0eff4-c6ce-47a5-8586-b9fc7e2cbb0b}; !- Port 1

OS:PortList,
  {030e8b46-393c-4aa5-ac2c-2da7f1b8ead8}, !- Handle
  {b6180e1f-3e07-4fa5-b0f7-96db065d90de}, !- Name
  {7e68568b-0639-4822-ade5-64fe1c51089b}; !- HVAC Component

OS:PortList,
  {78cca094-b6d3-4584-a636-02cfe02777cc}, !- Handle
  {8287dd5b-d36c-4b35-b87a-c6e734261709}, !- Name
  {7e68568b-0639-4822-ade5-64fe1c51089b}, !- HVAC Component
  {f0a6f833-a6bb-406d-b784-18fa2cfb2ffb}; !- Port 1

OS:Sizing:Zone,
  {cd10019d-f8da-4c07-bc5d-5d15b902838d}, !- Handle
  {7e68568b-0639-4822-ade5-64fe1c51089b}, !- Zone or ZoneList Name
  SupplyAirTemperature,                   !- Zone Cooling Design Supply Air Temperature Input Method
  14,                                     !- Zone Cooling Design Supply Air Temperature {C}
  11.11,                                  !- Zone Cooling Design Supply Air Temperature Difference {deltaC}
  SupplyAirTemperature,                   !- Zone Heating Design Supply Air Temperature Input Method
  40,                                     !- Zone Heating Design Supply Air Temperature {C}
  11.11,                                  !- Zone Heating Design Supply Air Temperature Difference {deltaC}
  0.0085,                                 !- Zone Cooling Design Supply Air Humidity Ratio {kg-H2O/kg-air}
  0.008,                                  !- Zone Heating Design Supply Air Humidity Ratio {kg-H2O/kg-air}
  ,                                       !- Zone Heating Sizing Factor
  ,                                       !- Zone Cooling Sizing Factor
  DesignDay,                              !- Cooling Design Air Flow Method
  ,                                       !- Cooling Design Air Flow Rate {m3/s}
  ,                                       !- Cooling Minimum Air Flow per Zone Floor Area {m3/s-m2}
  ,                                       !- Cooling Minimum Air Flow {m3/s}
  ,                                       !- Cooling Minimum Air Flow Fraction
  DesignDay,                              !- Heating Design Air Flow Method
  ,                                       !- Heating Design Air Flow Rate {m3/s}
  ,                                       !- Heating Maximum Air Flow per Zone Floor Area {m3/s-m2}
  ,                                       !- Heating Maximum Air Flow {m3/s}
  ,                                       !- Heating Maximum Air Flow Fraction
  ,                                       !- Design Zone Air Distribution Effectiveness in Cooling Mode
  ,                                       !- Design Zone Air Distribution Effectiveness in Heating Mode
  No,                                     !- Account for Dedicated Outdoor Air System
  NeutralSupplyAir,                       !- Dedicated Outdoor Air System Control Strategy
  autosize,                               !- Dedicated Outdoor Air Low Setpoint Temperature for Design {C}
  autosize;                               !- Dedicated Outdoor Air High Setpoint Temperature for Design {C}

OS:ZoneHVAC:EquipmentList,
  {35bd7043-93a2-4980-a0a2-b93a6d645ae4}, !- Handle
  Zone HVAC Equipment List 1,             !- Name
  {7e68568b-0639-4822-ade5-64fe1c51089b}, !- Thermal Zone
  SequentialLoad,                         !- Load Distribution Scheme
  {a976dac9-db4a-4703-b2f9-3e515bcfe2a7}, !- Zone Equipment 1
  2,                                      !- Zone Equipment Cooling Sequence 1
  2,                                      !- Zone Equipment Heating or No-Load Sequence 1
  ,                                       !- Zone Equipment Sequential Cooling Fraction 1
  ,                                       !- Zone Equipment Sequential Heating Fraction 1
  {14ba26da-b320-4912-bca8-467d011300f3}, !- Zone Equipment 2
  1,                                      !- Zone Equipment Cooling Sequence 2
  1,                                      !- Zone Equipment Heating or No-Load Sequence 2
  ,                                       !- Zone Equipment Sequential Cooling Fraction 2
  ;                                       !- Zone Equipment Sequential Heating Fraction 2

OS:Space,
  {f08ed60a-b761-47fc-8574-02222c847ca4}, !- Handle
  living space,                           !- Name
  {e04fa184-eefd-460c-b630-b1cf202066a3}, !- Space Type Name
  ,                                       !- Default Construction Set Name
  ,                                       !- Default Schedule Set Name
  ,                                       !- Direction of Relative North {deg}
  ,                                       !- X Origin {m}
  ,                                       !- Y Origin {m}
  ,                                       !- Z Origin {m}
  ,                                       !- Building Story Name
  {7e68568b-0639-4822-ade5-64fe1c51089b}, !- Thermal Zone Name
  ,                                       !- Part of Total Floor Area
  ,                                       !- Design Specification Outdoor Air Object Name
  {03657a9d-b959-4d60-ac98-1d3e1dd5231c}; !- Building Unit Name

OS:Surface,
  {dc1595ab-c5cb-4f13-ac95-026f077d057c}, !- Handle
  Surface 1,                              !- Name
  Floor,                                  !- Surface Type
  {9300e89a-1ac3-445d-8a85-675d6e6b9df2}, !- Construction Name
  {f08ed60a-b761-47fc-8574-02222c847ca4}, !- Space Name
  Surface,                                !- Outside Boundary Condition
  {30e6d524-d31e-46f4-b463-18be8f87c11e}, !- Outside Boundary Condition Object
  NoSun,                                  !- Sun Exposure
  NoWind,                                 !- Wind Exposure
  ,                                       !- View Factor to Ground
  ,                                       !- Number of Vertices
  0, -9.144, 0,                           !- X,Y,Z Vertex 1 {m}
  0, 0, 0,                                !- X,Y,Z Vertex 2 {m}
  5.08, 0, 0,                             !- X,Y,Z Vertex 3 {m}
  5.08, -9.144, 0;                        !- X,Y,Z Vertex 4 {m}

OS:Surface,
  {ca0cfac3-97da-4935-b6d3-4b866cb14217}, !- Handle
  Surface 2,                              !- Name
  Wall,                                   !- Surface Type
  {bf9eeeda-1760-4afc-abef-e662c46a9246}, !- Construction Name
  {f08ed60a-b761-47fc-8574-02222c847ca4}, !- Space Name
  Outdoors,                               !- Outside Boundary Condition
  ,                                       !- Outside Boundary Condition Object
  SunExposed,                             !- Sun Exposure
  WindExposed,                            !- Wind Exposure
  ,                                       !- View Factor to Ground
  ,                                       !- Number of Vertices
  0, 0, 2.4384,                           !- X,Y,Z Vertex 1 {m}
  0, 0, 0,                                !- X,Y,Z Vertex 2 {m}
  0, -9.144, 0,                           !- X,Y,Z Vertex 3 {m}
  0, -9.144, 2.4384;                      !- X,Y,Z Vertex 4 {m}

OS:Surface,
  {f3f4fec3-ac59-4b8b-8fdd-2178eaa425d4}, !- Handle
  Surface 3,                              !- Name
  Wall,                                   !- Surface Type
  {885fe0ce-c11e-4fa6-afc2-76716e31da07}, !- Construction Name
  {f08ed60a-b761-47fc-8574-02222c847ca4}, !- Space Name
  Adiabatic,                              !- Outside Boundary Condition
  ,                                       !- Outside Boundary Condition Object
  NoSun,                                  !- Sun Exposure
  NoWind,                                 !- Wind Exposure
  ,                                       !- View Factor to Ground
  ,                                       !- Number of Vertices
  5.08, 0, 2.4384,                        !- X,Y,Z Vertex 1 {m}
  5.08, 0, 0,                             !- X,Y,Z Vertex 2 {m}
  0, 0, 0,                                !- X,Y,Z Vertex 3 {m}
  0, 0, 2.4384;                           !- X,Y,Z Vertex 4 {m}

OS:Surface,
  {bf9c9043-a4b3-4270-8f80-aa60522879b0}, !- Handle
  Surface 4,                              !- Name
  Wall,                                   !- Surface Type
  {ad702576-81c2-42a2-b133-ee79a62bbe29}, !- Construction Name
  {f08ed60a-b761-47fc-8574-02222c847ca4}, !- Space Name
  Surface,                                !- Outside Boundary Condition
  {a3133329-0360-4724-b28c-76a596b6150f}, !- Outside Boundary Condition Object
  NoSun,                                  !- Sun Exposure
  NoWind,                                 !- Wind Exposure
  ,                                       !- View Factor to Ground
  ,                                       !- Number of Vertices
  5.08, -9.144, 2.4384,                   !- X,Y,Z Vertex 1 {m}
  5.08, -9.144, 0,                        !- X,Y,Z Vertex 2 {m}
  5.08, 0, 0,                             !- X,Y,Z Vertex 3 {m}
  5.08, 0, 2.4384;                        !- X,Y,Z Vertex 4 {m}

OS:Surface,
  {422045dc-867e-447a-9821-dd84399d6228}, !- Handle
  Surface 5,                              !- Name
  Wall,                                   !- Surface Type
  {bf9eeeda-1760-4afc-abef-e662c46a9246}, !- Construction Name
  {f08ed60a-b761-47fc-8574-02222c847ca4}, !- Space Name
  Outdoors,                               !- Outside Boundary Condition
  ,                                       !- Outside Boundary Condition Object
  SunExposed,                             !- Sun Exposure
  WindExposed,                            !- Wind Exposure
  ,                                       !- View Factor to Ground
  ,                                       !- Number of Vertices
  0, -9.144, 2.4384,                      !- X,Y,Z Vertex 1 {m}
  0, -9.144, 0,                           !- X,Y,Z Vertex 2 {m}
  5.08, -9.144, 0,                        !- X,Y,Z Vertex 3 {m}
  5.08, -9.144, 2.4384;                   !- X,Y,Z Vertex 4 {m}

OS:Surface,
  {9c50e57d-46a9-4b67-9986-6e1e96a79bd8}, !- Handle
  Surface 6,                              !- Name
  RoofCeiling,                            !- Surface Type
  {e615ddab-b871-413d-a720-921662400350}, !- Construction Name
  {f08ed60a-b761-47fc-8574-02222c847ca4}, !- Space Name
  Surface,                                !- Outside Boundary Condition
  {7cfe354f-0dc9-4e82-a9e2-4b3a1beaa206}, !- Outside Boundary Condition Object
  NoSun,                                  !- Sun Exposure
  NoWind,                                 !- Wind Exposure
  ,                                       !- View Factor to Ground
  ,                                       !- Number of Vertices
  5.08, -9.144, 2.4384,                   !- X,Y,Z Vertex 1 {m}
  5.08, 0, 2.4384,                        !- X,Y,Z Vertex 2 {m}
  0, 0, 2.4384,                           !- X,Y,Z Vertex 3 {m}
  0, -9.144, 2.4384;                      !- X,Y,Z Vertex 4 {m}

OS:SpaceType,
  {e04fa184-eefd-460c-b630-b1cf202066a3}, !- Handle
  Space Type 1,                           !- Name
  ,                                       !- Default Construction Set Name
  ,                                       !- Default Schedule Set Name
  ,                                       !- Group Rendering Name
  ,                                       !- Design Specification Outdoor Air Object Name
  ,                                       !- Standards Template
  ,                                       !- Standards Building Type
  living;                                 !- Standards Space Type

OS:ThermalZone,
  {9de4e6c5-2739-46a4-8383-38d81e28eac7}, !- Handle
  living zone|unit 2,                     !- Name
  ,                                       !- Multiplier
  ,                                       !- Ceiling Height {m}
  ,                                       !- Volume {m3}
  ,                                       !- Floor Area {m2}
  ,                                       !- Zone Inside Convection Algorithm
  ,                                       !- Zone Outside Convection Algorithm
  ,                                       !- Zone Conditioning Equipment List Name
  {0f191807-d344-4be1-bd16-07288e6b2dda}, !- Zone Air Inlet Port List
  {7f0e332f-c654-4f50-a167-6f658e97d68f}, !- Zone Air Exhaust Port List
  {ebb2ebfd-72e4-4a1b-8a12-895b5c488a16}, !- Zone Air Node Name
  {ddb0a911-1527-46fd-b986-67b8ed5914c7}, !- Zone Return Air Port List
  ,                                       !- Primary Daylighting Control Name
  ,                                       !- Fraction of Zone Controlled by Primary Daylighting Control
  ,                                       !- Secondary Daylighting Control Name
  ,                                       !- Fraction of Zone Controlled by Secondary Daylighting Control
  ,                                       !- Illuminance Map Name
  ,                                       !- Group Rendering Name
  {ada3e7ab-1492-46bc-9040-8400059711ba}, !- Thermostat Name
  No;                                     !- Use Ideal Air Loads

OS:Node,
  {881874f5-75ef-4827-952b-abd1c3ad6b2f}, !- Handle
  Node 2,                                 !- Name
  {ebb2ebfd-72e4-4a1b-8a12-895b5c488a16}, !- Inlet Port
  ;                                       !- Outlet Port

OS:Connection,
  {ebb2ebfd-72e4-4a1b-8a12-895b5c488a16}, !- Handle
  {67c502f5-3d49-4464-a417-bbfa3be4cbd9}, !- Name
  {9de4e6c5-2739-46a4-8383-38d81e28eac7}, !- Source Object
  11,                                     !- Outlet Port
  {881874f5-75ef-4827-952b-abd1c3ad6b2f}, !- Target Object
  2;                                      !- Inlet Port

OS:PortList,
  {0f191807-d344-4be1-bd16-07288e6b2dda}, !- Handle
  {c89d471d-5660-4e9c-8f95-d4ed9b811901}, !- Name
  {9de4e6c5-2739-46a4-8383-38d81e28eac7}, !- HVAC Component
  {4043489a-a615-4c8a-8ca2-6ab73431e551}; !- Port 1

OS:PortList,
  {7f0e332f-c654-4f50-a167-6f658e97d68f}, !- Handle
  {fbb3b21d-aad5-41d5-8d70-1d604411396a}, !- Name
  {9de4e6c5-2739-46a4-8383-38d81e28eac7}; !- HVAC Component

OS:PortList,
  {ddb0a911-1527-46fd-b986-67b8ed5914c7}, !- Handle
  {7468867d-d4d3-41b9-ae97-c7dae524c3d4}, !- Name
  {9de4e6c5-2739-46a4-8383-38d81e28eac7}, !- HVAC Component
  {cf209ea8-fd40-4820-a204-ac4448ed5801}; !- Port 1

OS:Sizing:Zone,
  {51a7e366-6d2e-47e9-b2b1-b23a73ca9350}, !- Handle
  {9de4e6c5-2739-46a4-8383-38d81e28eac7}, !- Zone or ZoneList Name
  SupplyAirTemperature,                   !- Zone Cooling Design Supply Air Temperature Input Method
  14,                                     !- Zone Cooling Design Supply Air Temperature {C}
  11.11,                                  !- Zone Cooling Design Supply Air Temperature Difference {deltaC}
  SupplyAirTemperature,                   !- Zone Heating Design Supply Air Temperature Input Method
  40,                                     !- Zone Heating Design Supply Air Temperature {C}
  11.11,                                  !- Zone Heating Design Supply Air Temperature Difference {deltaC}
  0.0085,                                 !- Zone Cooling Design Supply Air Humidity Ratio {kg-H2O/kg-air}
  0.008,                                  !- Zone Heating Design Supply Air Humidity Ratio {kg-H2O/kg-air}
  ,                                       !- Zone Heating Sizing Factor
  ,                                       !- Zone Cooling Sizing Factor
  DesignDay,                              !- Cooling Design Air Flow Method
  ,                                       !- Cooling Design Air Flow Rate {m3/s}
  ,                                       !- Cooling Minimum Air Flow per Zone Floor Area {m3/s-m2}
  ,                                       !- Cooling Minimum Air Flow {m3/s}
  ,                                       !- Cooling Minimum Air Flow Fraction
  DesignDay,                              !- Heating Design Air Flow Method
  ,                                       !- Heating Design Air Flow Rate {m3/s}
  ,                                       !- Heating Maximum Air Flow per Zone Floor Area {m3/s-m2}
  ,                                       !- Heating Maximum Air Flow {m3/s}
  ,                                       !- Heating Maximum Air Flow Fraction
  ,                                       !- Design Zone Air Distribution Effectiveness in Cooling Mode
  ,                                       !- Design Zone Air Distribution Effectiveness in Heating Mode
  No,                                     !- Account for Dedicated Outdoor Air System
  NeutralSupplyAir,                       !- Dedicated Outdoor Air System Control Strategy