!- NOTE: Auto-generated from /test/osw_files/MF_40units_4story_SL_3Beds_2Baths_Denver_Furnace_CentralAC.osw

OS:Version,
  {a8f1f9d4-dca9-474f-a5cb-b3e214d8266b}, !- Handle
  2.8.1;                                  !- Version Identifier

OS:SimulationControl,
  {c45a5927-3dd3-410a-a72c-f092dc189c61}, !- Handle
  ,                                       !- Do Zone Sizing Calculation
  ,                                       !- Do System Sizing Calculation
  ,                                       !- Do Plant Sizing Calculation
  No;                                     !- Run Simulation for Sizing Periods

OS:Timestep,
  {1c74e4d4-afda-4ab8-99bd-5ab6db2fdb65}, !- Handle
  6;                                      !- Number of Timesteps per Hour

OS:ShadowCalculation,
  {66359a35-3267-4846-b1fd-55e3afec3b06}, !- Handle
  20,                                     !- Calculation Frequency
  200;                                    !- Maximum Figures in Shadow Overlap Calculations

OS:SurfaceConvectionAlgorithm:Outside,
  {12749b09-182a-4222-9e7e-cc58540db8f9}, !- Handle
  DOE-2;                                  !- Algorithm

OS:SurfaceConvectionAlgorithm:Inside,
  {0c198206-ea17-40df-9a06-d0d98df7857d}, !- Handle
  TARP;                                   !- Algorithm

OS:ZoneCapacitanceMultiplier:ResearchSpecial,
  {0a2dfe5c-8bed-4d8a-8bf9-f63fd88f934d}, !- Handle
  ,                                       !- Temperature Capacity Multiplier
  15,                                     !- Humidity Capacity Multiplier
  ;                                       !- Carbon Dioxide Capacity Multiplier

OS:RunPeriod,
  {22fe8342-d4be-42ea-8ecd-cdf5c4a1ccf9}, !- Handle
  Run Period 1,                           !- Name
  1,                                      !- Begin Month
  1,                                      !- Begin Day of Month
  12,                                     !- End Month
  31,                                     !- End Day of Month
  ,                                       !- Use Weather File Holidays and Special Days
  ,                                       !- Use Weather File Daylight Saving Period
  ,                                       !- Apply Weekend Holiday Rule
  ,                                       !- Use Weather File Rain Indicators
  ,                                       !- Use Weather File Snow Indicators
  ;                                       !- Number of Times Runperiod to be Repeated

OS:YearDescription,
  {647ffb1c-9f31-41d4-bee1-32c51b91a52b}, !- Handle
  2007,                                   !- Calendar Year
  ,                                       !- Day of Week for Start Day
  ;                                       !- Is Leap Year

OS:ThermalZone,
  {8d2d6c5f-2cb9-4719-bc2d-5f395046404c}, !- Handle
  living zone,                            !- Name
  ,                                       !- Multiplier
  ,                                       !- Ceiling Height {m}
  ,                                       !- Volume {m3}
  ,                                       !- Floor Area {m2}
  ,                                       !- Zone Inside Convection Algorithm
  ,                                       !- Zone Outside Convection Algorithm
  ,                                       !- Zone Conditioning Equipment List Name
  {daf7b17c-85f2-460a-a542-68e8e3d71c78}, !- Zone Air Inlet Port List
  {f3f0678e-cf5e-41c1-9071-971a9da04026}, !- Zone Air Exhaust Port List
  {5f62037e-8a32-444e-80e1-5ee17062eb73}, !- Zone Air Node Name
  {043f829a-68a8-4407-b062-17ee409ad02a}, !- Zone Return Air Port List
  ,                                       !- Primary Daylighting Control Name
  ,                                       !- Fraction of Zone Controlled by Primary Daylighting Control
  ,                                       !- Secondary Daylighting Control Name
  ,                                       !- Fraction of Zone Controlled by Secondary Daylighting Control
  ,                                       !- Illuminance Map Name
  ,                                       !- Group Rendering Name
  {6167284a-2929-4603-92c3-3314bb7518f0}, !- Thermostat Name
  No;                                     !- Use Ideal Air Loads

OS:Node,
  {31580e60-bce0-439e-bea7-cf3b888d22e0}, !- Handle
  Node 1,                                 !- Name
  {5f62037e-8a32-444e-80e1-5ee17062eb73}, !- Inlet Port
  ;                                       !- Outlet Port

OS:Connection,
  {5f62037e-8a32-444e-80e1-5ee17062eb73}, !- Handle
  {6be81039-69c5-49e2-85b1-6469ee746e78}, !- Name
  {8d2d6c5f-2cb9-4719-bc2d-5f395046404c}, !- Source Object
  11,                                     !- Outlet Port
  {31580e60-bce0-439e-bea7-cf3b888d22e0}, !- Target Object
  2;                                      !- Inlet Port

OS:PortList,
  {daf7b17c-85f2-460a-a542-68e8e3d71c78}, !- Handle
  {14833b51-5e1b-4e88-8e4a-783ee1aa4672}, !- Name
  {8d2d6c5f-2cb9-4719-bc2d-5f395046404c}, !- HVAC Component
  {85c3c419-f1cd-49d8-9920-94ea29e4f660}, !- Port 1
  {7c2cb693-71f6-43a6-b2b7-1c0eb3210d24}; !- Port 2

OS:PortList,
  {f3f0678e-cf5e-41c1-9071-971a9da04026}, !- Handle
  {6f7b61a1-f9d8-4b8a-9291-d3b89b2f02ec}, !- Name
  {8d2d6c5f-2cb9-4719-bc2d-5f395046404c}; !- HVAC Component

OS:PortList,
  {043f829a-68a8-4407-b062-17ee409ad02a}, !- Handle
  {97ae22af-416c-4792-ae26-75de6754857b}, !- Name
  {8d2d6c5f-2cb9-4719-bc2d-5f395046404c}, !- HVAC Component
  {29f6e808-fcc6-4a7b-b030-e9f0faf31711}, !- Port 1
  {72713b18-a1db-4caf-afcb-36306f04938a}; !- Port 2

OS:Sizing:Zone,
  {1c83c443-5bb3-4185-af93-45427c99760e}, !- Handle
  {8d2d6c5f-2cb9-4719-bc2d-5f395046404c}, !- Zone or ZoneList Name
  SupplyAirTemperature,                   !- Zone Cooling Design Supply Air Temperature Input Method
  14,                                     !- Zone Cooling Design Supply Air Temperature {C}
  11.11,                                  !- Zone Cooling Design Supply Air Temperature Difference {deltaC}
  SupplyAirTemperature,                   !- Zone Heating Design Supply Air Temperature Input Method
  40,                                     !- Zone Heating Design Supply Air Temperature {C}
  11.11,                                  !- Zone Heating Design Supply Air Temperature Difference {deltaC}
  0.0085,                                 !- Zone Cooling Design Supply Air Humidity Ratio {kg-H2O/kg-air}
  0.008,                                  !- Zone Heating Design Supply Air Humidity Ratio {kg-H2O/kg-air}
  ,                                       !- Zone Heating Sizing Factor
  ,                                       !- Zone Cooling Sizing Factor
  DesignDay,                              !- Cooling Design Air Flow Method
  ,                                       !- Cooling Design Air Flow Rate {m3/s}
  ,                                       !- Cooling Minimum Air Flow per Zone Floor Area {m3/s-m2}
  ,                                       !- Cooling Minimum Air Flow {m3/s}
  ,                                       !- Cooling Minimum Air Flow Fraction
  DesignDay,                              !- Heating Design Air Flow Method
  ,                                       !- Heating Design Air Flow Rate {m3/s}
  ,                                       !- Heating Maximum Air Flow per Zone Floor Area {m3/s-m2}
  ,                                       !- Heating Maximum Air Flow {m3/s}
  ,                                       !- Heating Maximum Air Flow Fraction
  ,                                       !- Design Zone Air Distribution Effectiveness in Cooling Mode
  ,                                       !- Design Zone Air Distribution Effectiveness in Heating Mode
  No,                                     !- Account for Dedicated Outdoor Air System
  NeutralSupplyAir,                       !- Dedicated Outdoor Air System Control Strategy
  autosize,                               !- Dedicated Outdoor Air Low Setpoint Temperature for Design {C}
  autosize;                               !- Dedicated Outdoor Air High Setpoint Temperature for Design {C}

OS:ZoneHVAC:EquipmentList,
  {a0689cb5-b12c-4ce4-a484-32475c80211b}, !- Handle
  Zone HVAC Equipment List 1,             !- Name
  {8d2d6c5f-2cb9-4719-bc2d-5f395046404c}, !- Thermal Zone
  SequentialLoad,                         !- Load Distribution Scheme
  {6e17252e-6834-4ea3-a42c-c54defa482ed}, !- Zone Equipment 1
  1,                                      !- Zone Equipment Cooling Sequence 1
  1,                                      !- Zone Equipment Heating or No-Load Sequence 1
  ,                                       !- Zone Equipment Sequential Cooling Fraction 1
  ,                                       !- Zone Equipment Sequential Heating Fraction 1
  {abba0f20-289f-4450-b6c5-abb6da0ca7c9}, !- Zone Equipment 2
  2,                                      !- Zone Equipment Cooling Sequence 2
  2,                                      !- Zone Equipment Heating or No-Load Sequence 2
  ,                                       !- Zone Equipment Sequential Cooling Fraction 2
  ;                                       !- Zone Equipment Sequential Heating Fraction 2

OS:Space,
  {f661cee0-c7a7-4ca5-83b1-dc0f073510c8}, !- Handle
  living space,                           !- Name
  {31b0aff9-01b6-49c5-8c40-56779ec6a69e}, !- Space Type Name
  ,                                       !- Default Construction Set Name
  ,                                       !- Default Schedule Set Name
  ,                                       !- Direction of Relative North {deg}
  ,                                       !- X Origin {m}
  ,                                       !- Y Origin {m}
  ,                                       !- Z Origin {m}
  ,                                       !- Building Story Name
  {8d2d6c5f-2cb9-4719-bc2d-5f395046404c}, !- Thermal Zone Name
  ,                                       !- Part of Total Floor Area
  ,                                       !- Design Specification Outdoor Air Object Name
  {0cb60ceb-16a6-45ff-9ad6-f417fca50b45}; !- Building Unit Name

OS:Surface,
  {cea15714-4709-4ee5-9de6-3358337825ad}, !- Handle
  Surface 1,                              !- Name
  Floor,                                  !- Surface Type
  ,                                       !- Construction Name
  {f661cee0-c7a7-4ca5-83b1-dc0f073510c8}, !- Space Name
  Foundation,                             !- Outside Boundary Condition
  ,                                       !- Outside Boundary Condition Object
  NoSun,                                  !- Sun Exposure
  NoWind,                                 !- Wind Exposure
  ,                                       !- View Factor to Ground
  ,                                       !- Number of Vertices
  0, -12.9315688143396, 0,                !- X,Y,Z Vertex 1 {m}
  0, 0, 0,                                !- X,Y,Z Vertex 2 {m}
  6.46578440716979, 0, 0,                 !- X,Y,Z Vertex 3 {m}
  6.46578440716979, -12.9315688143396, 0; !- X,Y,Z Vertex 4 {m}

OS:Surface,
  {3a471a1d-e56d-45b3-8060-1be042aeaebd}, !- Handle
  Surface 2,                              !- Name
  Wall,                                   !- Surface Type
  ,                                       !- Construction Name
  {f661cee0-c7a7-4ca5-83b1-dc0f073510c8}, !- Space Name
  Outdoors,                               !- Outside Boundary Condition
  ,                                       !- Outside Boundary Condition Object
  SunExposed,                             !- Sun Exposure
  WindExposed,                            !- Wind Exposure
  ,                                       !- View Factor to Ground
  ,                                       !- Number of Vertices
  0, 0, 2.4384,                           !- X,Y,Z Vertex 1 {m}
  0, 0, 0,                                !- X,Y,Z Vertex 2 {m}
  0, -12.9315688143396, 0,                !- X,Y,Z Vertex 3 {m}
  0, -12.9315688143396, 2.4384;           !- X,Y,Z Vertex 4 {m}

OS:Surface,
  {6437254e-928e-4b39-b2c6-f3ee545488b6}, !- Handle
  Surface 3,                              !- Name
  Wall,                                   !- Surface Type
  ,                                       !- Construction Name
  {f661cee0-c7a7-4ca5-83b1-dc0f073510c8}, !- Space Name
  Adiabatic,                              !- Outside Boundary Condition
  ,                                       !- Outside Boundary Condition Object
  NoSun,                                  !- Sun Exposure
  NoWind,                                 !- Wind Exposure
  ,                                       !- View Factor to Ground
  ,                                       !- Number of Vertices
  6.46578440716979, 0, 2.4384,            !- X,Y,Z Vertex 1 {m}
  6.46578440716979, 0, 0,                 !- X,Y,Z Vertex 2 {m}
  0, 0, 0,                                !- X,Y,Z Vertex 3 {m}
  0, 0, 2.4384;                           !- X,Y,Z Vertex 4 {m}

OS:Surface,
  {6a5c33cf-47ab-4527-8563-abe3987278b4}, !- Handle
  Surface 4,                              !- Name
  Wall,                                   !- Surface Type
  ,                                       !- Construction Name
  {f661cee0-c7a7-4ca5-83b1-dc0f073510c8}, !- Space Name
  Surface,                                !- Outside Boundary Condition
  {ea5c1086-cdbb-47b9-9c0d-ee5aee9ccd38}, !- Outside Boundary Condition Object
  NoSun,                                  !- Sun Exposure
  NoWind,                                 !- Wind Exposure
  ,                                       !- View Factor to Ground
  ,                                       !- Number of Vertices
  6.46578440716979, -12.9315688143396, 2.4384, !- X,Y,Z Vertex 1 {m}
  6.46578440716979, -12.9315688143396, 0, !- X,Y,Z Vertex 2 {m}
  6.46578440716979, 0, 0,                 !- X,Y,Z Vertex 3 {m}
  6.46578440716979, 0, 2.4384;            !- X,Y,Z Vertex 4 {m}

OS:Surface,
  {ad04c9a7-4b33-4f44-8c02-9ba1d9c71194}, !- Handle
  Surface 5,                              !- Name
  Wall,                                   !- Surface Type
  ,                                       !- Construction Name
  {f661cee0-c7a7-4ca5-83b1-dc0f073510c8}, !- Space Name
  Outdoors,                               !- Outside Boundary Condition
  ,                                       !- Outside Boundary Condition Object
  SunExposed,                             !- Sun Exposure
  WindExposed,                            !- Wind Exposure
  ,                                       !- View Factor to Ground
  ,                                       !- Number of Vertices
  0, -12.9315688143396, 2.4384,           !- X,Y,Z Vertex 1 {m}
  0, -12.9315688143396, 0,                !- X,Y,Z Vertex 2 {m}
  6.46578440716979, -12.9315688143396, 0, !- X,Y,Z Vertex 3 {m}
  6.46578440716979, -12.9315688143396, 2.4384; !- X,Y,Z Vertex 4 {m}

OS:Surface,
  {74c4b4ed-5eb1-408c-a033-31c3e4ce9437}, !- Handle
  Surface 6,                              !- Name
  RoofCeiling,                            !- Surface Type
  ,                                       !- Construction Name
  {f661cee0-c7a7-4ca5-83b1-dc0f073510c8}, !- Space Name
  Surface,                                !- Outside Boundary Condition
  {eb15d489-f1cd-4dd8-9fa2-7ac89e464452}, !- Outside Boundary Condition Object
  NoSun,                                  !- Sun Exposure
  NoWind,                                 !- Wind Exposure
  ,                                       !- View Factor to Ground
  ,                                       !- Number of Vertices
  6.46578440716979, -12.9315688143396, 2.4384, !- X,Y,Z Vertex 1 {m}
  6.46578440716979, 0, 2.4384,            !- X,Y,Z Vertex 2 {m}
  0, 0, 2.4384,                           !- X,Y,Z Vertex 3 {m}
  0, -12.9315688143396, 2.4384;           !- X,Y,Z Vertex 4 {m}

OS:SpaceType,
  {31b0aff9-01b6-49c5-8c40-56779ec6a69e}, !- Handle
  Space Type 1,                           !- Name
  ,                                       !- Default Construction Set Name
  ,                                       !- Default Schedule Set Name
  ,                                       !- Group Rendering Name
  ,                                       !- Design Specification Outdoor Air Object Name
  ,                                       !- Standards Template
  ,                                       !- Standards Building Type
  living;                                 !- Standards Space Type

OS:ThermalZone,
  {027a71bc-bc05-4f2d-9cc6-94f0ef05635a}, !- Handle
  living zone|unit 2,                     !- Name
  ,                                       !- Multiplier
  ,                                       !- Ceiling Height {m}
  ,                                       !- Volume {m3}
  ,                                       !- Floor Area {m2}
  ,                                       !- Zone Inside Convection Algorithm
  ,                                       !- Zone Outside Convection Algorithm
  ,                                       !- Zone Conditioning Equipment List Name
  {a64e924c-39c4-485d-b0e9-67708699d139}, !- Zone Air Inlet Port List
  {cf79131a-f460-4bc9-b1d1-48fec8f0a978}, !- Zone Air Exhaust Port List
  {95be54fe-b321-4653-869f-ec67690cf989}, !- Zone Air Node Name
  {0d5616be-1f0b-460c-bbcb-4de2e22052a9}, !- Zone Return Air Port List
  ,                                       !- Primary Daylighting Control Name
  ,                                       !- Fraction of Zone Controlled by Primary Daylighting Control
  ,                                       !- Secondary Daylighting Control Name
  ,                                       !- Fraction of Zone Controlled by Secondary Daylighting Control
  ,                                       !- Illuminance Map Name
  ,                                       !- Group Rendering Name
  {b524a750-27ff-4dcc-b608-e9710ecc3076}, !- Thermostat Name
  No;                                     !- Use Ideal Air Loads

OS:Node,
  {632a2d89-d5c6-4d11-8a56-8197bb4277a7}, !- Handle
  Node 2,                                 !- Name
  {95be54fe-b321-4653-869f-ec67690cf989}, !- Inlet Port
  ;                                       !- Outlet Port

OS:Connection,
  {95be54fe-b321-4653-869f-ec67690cf989}, !- Handle
  {27e0f9bb-b323-43fb-ba43-179af2ab5139}, !- Name
  {027a71bc-bc05-4f2d-9cc6-94f0ef05635a}, !- Source Object
  11,                                     !- Outlet Port
  {632a2d89-d5c6-4d11-8a56-8197bb4277a7}, !- Target Object
  2;                                      !- Inlet Port

OS:PortList,
  {a64e924c-39c4-485d-b0e9-67708699d139}, !- Handle
  {9739f9ed-7d31-48bc-8de1-30f4cf824f93}, !- Name
  {027a71bc-bc05-4f2d-9cc6-94f0ef05635a}, !- HVAC Component
  {7526b070-4901-40b7-bb83-0fc6ab77759e}, !- Port 1
  {0cc8a392-a9e7-4ce1-b25e-0a7cf7bb60b1}; !- Port 2

OS:PortList,
  {cf79131a-f460-4bc9-b1d1-48fec8f0a978}, !- Handle
  {48ca6e7f-fec5-47c8-bb2e-c319dfd1dd31}, !- Name
  {027a71bc-bc05-4f2d-9cc6-94f0ef05635a}; !- HVAC Component

OS:PortList,
  {0d5616be-1f0b-460c-bbcb-4de2e22052a9}, !- Handle
  {e9315b7e-8ffe-43e3-a9af-d2bfa5d68545}, !- Name
  {027a71bc-bc05-4f2d-9cc6-94f0ef05635a}, !- HVAC Component
  {6a920f02-defe-4049-80e5-3e9d5a0b1909}, !- Port 1
  {2be5f32a-91a6-4022-97ad-4c32ccac3318}; !- Port 2

OS:Sizing:Zone,
  {975e7ef0-24aa-4046-9e25-8003d1fabaa5}, !- Handle
  {027a71bc-bc05-4f2d-9cc6-94f0ef05635a}, !- Zone or ZoneList Name
  SupplyAirTemperature,                   !- Zone Cooling Design Supply Air Temperature Input Method
  14,                                     !- Zone Cooling Design Supply Air Temperature {C}
  11.11,                                  !- Zone Cooling Design Supply Air Temperature Difference {deltaC}
  SupplyAirTemperature,                   !- Zone Heating Design Supply Air Temperature Input Method
  40,                                     !- Zone Heating Design Supply Air Temperature {C}
  11.11,                                  !- Zone Heating Design Supply Air Temperature Difference {deltaC}
  0.0085,                                 !- Zone Cooling Design Supply Air Humidity Ratio {kg-H2O/kg-air}
  0.008,                                  !- Zone Heating Design Supply Air Humidity Ratio {kg-H2O/kg-air}
  ,                                       !- Zone Heating Sizing Factor
  ,                                       !- Zone Cooling Sizing Factor
  DesignDay,                              !- Cooling Design Air Flow Method
  ,                                       !- Cooling Design Air Flow Rate {m3/s}
  ,                                       !- Cooling Minimum Air Flow per Zone Floor Area {m3/s-m2}
  ,                                       !- Cooling Minimum Air Flow {m3/s}
  ,                                       !- Cooling Minimum Air Flow Fraction
  DesignDay,                              !- Heating Design Air Flow Method
  ,                                       !- Heating Design Air Flow Rate {m3/s}
  ,                                       !- Heating Maximum Air Flow per Zone Floor Area {m3/s-m2}
  ,                                       !- Heating Maximum Air Flow {m3/s}
  ,                                       !- Heating Maximum Air Flow Fraction
  ,                                       !- Design Zone Air Distribution Effectiveness in Cooling Mode
  ,                                       !- Design Zone Air Distribution Effectiveness in Heating Mode
  No,                                     !- Account for Dedicated Outdoor Air System
  NeutralSupplyAir,                       !- Dedicated Outdoor Air System Control Strategy
  autosize,                               !- Dedicated Outdoor Air Low Setpoint Temperature for Design {C}
  autosize;                               !- Dedicated Outdoor Air High Setpoint Temperature for Design {C}

OS:ZoneHVAC:EquipmentList,
  {424eddc7-7fab-4eee-bd23-c6ebb99c09b7}, !- Handle
  Zone HVAC Equipment List 2,             !- Name
  {027a71bc-bc05-4f2d-9cc6-94f0ef05635a}, !- Thermal Zone
  SequentialLoad,                         !- Load Distribution Scheme
  {28046443-125f-4569-a5db-ca8ebc3ccd3e}, !- Zone Equipment 1
  1,                                      !- Zone Equipment Cooling Sequence 1
  1,                                      !- Zone Equipment Heating or No-Load Sequence 1
  ,                                       !- Zone Equipment Sequential Cooling Fraction 1
  ,                                       !- Zone Equipment Sequential Heating Fraction 1
  {f2f6c133-85ca-4748-8b14-920b9dd967f2}, !- Zone Equipment 2
  2,                                      !- Zone Equipment Cooling Sequence 2
  2,                                      !- Zone Equipment Heating or No-Load Sequence 2
  ,                                       !- Zone Equipment Sequential Cooling Fraction 2
  ;                                       !- Zone Equipment Sequential Heating Fraction 2

OS:Space,
  {c6d133e9-0d05-435b-a862-04d85f8ce325}, !- Handle
  living space|unit 2,                    !- Name
  {31b0aff9-01b6-49c5-8c40-56779ec6a69e}, !- Space Type Name
  ,                                       !- Default Construction Set Name
  ,                                       !- Default Schedule Set Name
  ,                                       !- Direction of Relative North {deg}
  ,                                       !- X Origin {m}
  ,                                       !- Y Origin {m}
  ,                                       !- Z Origin {m}
  ,                                       !- Building Story Name
  {027a71bc-bc05-4f2d-9cc6-94f0ef05635a}, !- Thermal Zone Name
  ,                                       !- Part of Total Floor Area
  ,                                       !- Design Specification Outdoor Air Object Name
  {593baa82-435d-4bd9-ab9e-1a505cc04764}; !- Building Unit Name

OS:Surface,
  {e0e6db59-831b-4854-b164-0e1f3208b46b}, !- Handle
  Surface 7,                              !- Name
  Floor,                                  !- Surface Type
  ,                                       !- Construction Name
  {c6d133e9-0d05-435b-a862-04d85f8ce325}, !- Space Name
  Foundation,                             !- Outside Boundary Condition
  ,                                       !- Outside Boundary Condition Object
  NoSun,                                  !- Sun Exposure
  NoWind,                                 !- Wind Exposure
  ,                                       !- View Factor to Ground
  ,                                       !- Number of Vertices
  0, 3.048, 0,                            !- X,Y,Z Vertex 1 {m}
  0, 15.9795688143396, 0,                 !- X,Y,Z Vertex 2 {m}
  6.46578440716979, 15.9795688143396, 0,  !- X,Y,Z Vertex 3 {m}
  6.46578440716979, 3.048, 0;             !- X,Y,Z Vertex 4 {m}

OS:Surface,
  {77f7f2ce-36ff-48ad-aad5-9065c22db4cd}, !- Handle
  Surface 8,                              !- Name
  Wall,                                   !- Surface Type
  ,                                       !- Construction Name
  {c6d133e9-0d05-435b-a862-04d85f8ce325}, !- Space Name
  Outdoors,                               !- Outside Boundary Condition
  ,                                       !- Outside Boundary Condition Object
  SunExposed,                             !- Sun Exposure
  WindExposed,                            !- Wind Exposure
  ,                                       !- View Factor to Ground
  ,                                       !- Number of Vertices
  0, 15.9795688143396, 2.4384,            !- X,Y,Z Vertex 1 {m}
  0, 15.9795688143396, 0,                 !- X,Y,Z Vertex 2 {m}
  0, 3.048, 0,                            !- X,Y,Z Vertex 3 {m}
  0, 3.048, 2.4384;                       !- X,Y,Z Vertex 4 {m}

OS:Surface,
  {d259a5b6-ee63-45ba-a23d-07fc63748bd3}, !- Handle
  Surface 9,                              !- Name
  Wall,                                   !- Surface Type
  ,                                       !- Construction Name
  {c6d133e9-0d05-435b-a862-04d85f8ce325}, !- Space Name
  Outdoors,                               !- Outside Boundary Condition
  ,                                       !- Outside Boundary Condition Object
  SunExposed,                             !- Sun Exposure
  WindExposed,                            !- Wind Exposure
  ,                                       !- View Factor to Ground
  ,                                       !- Number of Vertices
  6.46578440716979, 15.9795688143396, 2.4384, !- X,Y,Z Vertex 1 {m}
  6.46578440716979, 15.9795688143396, 0,  !- X,Y,Z Vertex 2 {m}
  0, 15.9795688143396, 0,                 !- X,Y,Z Vertex 3 {m}
  0, 15.9795688143396, 2.4384;            !- X,Y,Z Vertex 4 {m}

OS:Surface,
  {bb9ff8b8-63d9-49b4-9db3-8c9d30e63278}, !- Handle
  Surface 10,                             !- Name
  Wall,                                   !- Surface Type
  ,                                       !- Construction Name
  {c6d133e9-0d05-435b-a862-04d85f8ce325}, !- Space Name
  Surface,                                !- Outside Boundary Condition
  {12ffdbbe-5e63-46e9-82c9-0a3b85aeefc9}, !- Outside Boundary Condition Object
  NoSun,                                  !- Sun Exposure
  NoWind,                                 !- Wind Exposure
  ,                                       !- View Factor to Ground
  ,                                       !- Number of Vertices
  6.46578440716979, 3.048, 2.4384,        !- X,Y,Z Vertex 1 {m}
  6.46578440716979, 3.048, 0,             !- X,Y,Z Vertex 2 {m}
  6.46578440716979, 15.9795688143396, 0,  !- X,Y,Z Vertex 3 {m}
  6.46578440716979, 15.9795688143396, 2.4384; !- X,Y,Z Vertex 4 {m}

OS:Surface,
  {7c4ba52c-ebeb-4001-a62a-e2a84f32c226}, !- Handle
  Surface 11,                             !- Name
  Wall,                                   !- Surface Type
  ,                                       !- Construction Name
  {c6d133e9-0d05-435b-a862-04d85f8ce325}, !- Space Name
  Adiabatic,                              !- Outside Boundary Condition
  ,                                       !- Outside Boundary Condition Object
  NoSun,                                  !- Sun Exposure
  NoWind,                                 !- Wind Exposure
  ,                                       !- View Factor to Ground
  ,                                       !- Number of Vertices
  0, 3.048, 2.4384,                       !- X,Y,Z Vertex 1 {m}
  0, 3.048, 0,                            !- X,Y,Z Vertex 2 {m}
  6.46578440716979, 3.048, 0,             !- X,Y,Z Vertex 3 {m}
  6.46578440716979, 3.048, 2.4384;        !- X,Y,Z Vertex 4 {m}

OS:Surface,
  {404bee56-13de-4047-bd7d-d7b0e739cf47}, !- Handle
  Surface 12,                             !- Name
  RoofCeiling,                            !- Surface Type
  ,                                       !- Construction Name
  {c6d133e9-0d05-435b-a862-04d85f8ce325}, !- Space Name
  Surface,                                !- Outside Boundary Condition
  {d87db5a9-9c01-4cbb-a0d1-9620df051122}, !- Outside Boundary Condition Object
  NoSun,                                  !- Sun Exposure
  NoWind,                                 !- Wind Exposure
  ,                                       !- View Factor to Ground
  ,                                       !- Number of Vertices
  6.46578440716979, 3.048, 2.4384,        !- X,Y,Z Vertex 1 {m}
  6.46578440716979, 15.9795688143396, 2.4384, !- X,Y,Z Vertex 2 {m}
  0, 15.9795688143396, 2.4384,            !- X,Y,Z Vertex 3 {m}
  0, 3.048, 2.4384;                       !- X,Y,Z Vertex 4 {m}

OS:ThermalZone,
  {d2dee872-f9d0-4935-a6ae-aafc48b4ebbe}, !- Handle
  living zone|unit 3,                     !- Name
  ,                                       !- Multiplier
  ,                                       !- Ceiling Height {m}
  ,                                       !- Volume {m3}
  ,                                       !- Floor Area {m2}
  ,                                       !- Zone Inside Convection Algorithm
  ,                                       !- Zone Outside Convection Algorithm
  ,                                       !- Zone Conditioning Equipment List Name