!- NOTE: Auto-generated from /test/osw_files/MF_40units_4story_SL_3Beds_2Baths_Denver_Furnace_CentralAC.osw

OS:Version,
  {58edf00f-f8de-4564-8fc6-c26ca29cbe6a}, !- Handle
  2.9.0;                                  !- Version Identifier

OS:SimulationControl,
  {5513ef88-7abb-4791-9d1b-1275068a571e}, !- Handle
  ,                                       !- Do Zone Sizing Calculation
  ,                                       !- Do System Sizing Calculation
  ,                                       !- Do Plant Sizing Calculation
  No;                                     !- Run Simulation for Sizing Periods

OS:Timestep,
  {cec8589d-8b7c-414d-9544-a6bfa1739566}, !- Handle
  6;                                      !- Number of Timesteps per Hour

OS:ShadowCalculation,
  {519d7bef-cfa7-4a87-ab1f-53f77aff2143}, !- Handle
  20,                                     !- Calculation Frequency
  200;                                    !- Maximum Figures in Shadow Overlap Calculations

OS:SurfaceConvectionAlgorithm:Outside,
  {c94bb937-9a20-405c-80bd-5aef95999653}, !- Handle
  DOE-2;                                  !- Algorithm

OS:SurfaceConvectionAlgorithm:Inside,
  {28f6747c-5ec3-4c02-bb00-22113fe09726}, !- Handle
  TARP;                                   !- Algorithm

OS:ZoneCapacitanceMultiplier:ResearchSpecial,
  {16dd293d-7dd2-4bf9-a0b4-21c37c98416a}, !- Handle
  ,                                       !- Temperature Capacity Multiplier
  15,                                     !- Humidity Capacity Multiplier
  ;                                       !- Carbon Dioxide Capacity Multiplier

OS:RunPeriod,
  {69632fd8-c165-4d69-8822-6b4223653516}, !- Handle
  Run Period 1,                           !- Name
  1,                                      !- Begin Month
  1,                                      !- Begin Day of Month
  12,                                     !- End Month
  31,                                     !- End Day of Month
  ,                                       !- Use Weather File Holidays and Special Days
  ,                                       !- Use Weather File Daylight Saving Period
  ,                                       !- Apply Weekend Holiday Rule
  ,                                       !- Use Weather File Rain Indicators
  ,                                       !- Use Weather File Snow Indicators
  ;                                       !- Number of Times Runperiod to be Repeated

OS:YearDescription,
  {248fd1c2-c453-48da-95cb-13e640f1817b}, !- Handle
  2007,                                   !- Calendar Year
  ,                                       !- Day of Week for Start Day
  ;                                       !- Is Leap Year

OS:ThermalZone,
  {c5ce5f84-90de-43ff-916e-c68137e97da0}, !- Handle
  living zone,                            !- Name
  ,                                       !- Multiplier
  ,                                       !- Ceiling Height {m}
  ,                                       !- Volume {m3}
  ,                                       !- Floor Area {m2}
  ,                                       !- Zone Inside Convection Algorithm
  ,                                       !- Zone Outside Convection Algorithm
  ,                                       !- Zone Conditioning Equipment List Name
  {d7f903a3-71f2-4041-a0b0-aeadfd055994}, !- Zone Air Inlet Port List
  {2584fad4-abb2-4529-b35b-7962a2ffca10}, !- Zone Air Exhaust Port List
  {c7efcafd-afbc-42b9-a056-b41f8cacedca}, !- Zone Air Node Name
  {8f9b2976-9002-4ed5-a6d4-016adb7771b4}, !- Zone Return Air Port List
  ,                                       !- Primary Daylighting Control Name
  ,                                       !- Fraction of Zone Controlled by Primary Daylighting Control
  ,                                       !- Secondary Daylighting Control Name
  ,                                       !- Fraction of Zone Controlled by Secondary Daylighting Control
  ,                                       !- Illuminance Map Name
  ,                                       !- Group Rendering Name
  {e392d8c0-db7c-4c8b-ac7c-fce6de777100}, !- Thermostat Name
  No;                                     !- Use Ideal Air Loads

OS:Node,
  {cf7a6a5e-72b0-4fec-952a-164df87fceb9}, !- Handle
  Node 1,                                 !- Name
  {c7efcafd-afbc-42b9-a056-b41f8cacedca}, !- Inlet Port
  ;                                       !- Outlet Port

OS:Connection,
  {c7efcafd-afbc-42b9-a056-b41f8cacedca}, !- Handle
  {d8b34f1d-8e01-4645-8062-a0208fcbea91}, !- Name
  {c5ce5f84-90de-43ff-916e-c68137e97da0}, !- Source Object
  11,                                     !- Outlet Port
  {cf7a6a5e-72b0-4fec-952a-164df87fceb9}, !- Target Object
  2;                                      !- Inlet Port

OS:PortList,
  {d7f903a3-71f2-4041-a0b0-aeadfd055994}, !- Handle
  {443cf0d4-ba40-4ae9-a7da-1c231846d114}, !- Name
  {c5ce5f84-90de-43ff-916e-c68137e97da0}, !- HVAC Component
  {76f5ab9e-8aa1-4d35-a6de-5688128b3bc2}, !- Port 1
  {f9ed801f-6598-470e-89aa-651940dc0a6a}; !- Port 2

OS:PortList,
  {2584fad4-abb2-4529-b35b-7962a2ffca10}, !- Handle
  {1dee764a-daf4-4689-b746-d140fc27bcd4}, !- Name
  {c5ce5f84-90de-43ff-916e-c68137e97da0}; !- HVAC Component

OS:PortList,
  {8f9b2976-9002-4ed5-a6d4-016adb7771b4}, !- Handle
  {f72d9c99-f851-4ea0-9d1b-a7a7b8e4fc5e}, !- Name
  {c5ce5f84-90de-43ff-916e-c68137e97da0}, !- HVAC Component
  {f07e720b-1144-4298-9b42-a2c020fa9b20}, !- Port 1
  {e22419c6-b494-4373-995d-9b1451e5ae1f}; !- Port 2

OS:Sizing:Zone,
  {390da834-f75a-4837-9d02-3d7c54151a33}, !- Handle
  {c5ce5f84-90de-43ff-916e-c68137e97da0}, !- Zone or ZoneList Name
  SupplyAirTemperature,                   !- Zone Cooling Design Supply Air Temperature Input Method
  14,                                     !- Zone Cooling Design Supply Air Temperature {C}
  11.11,                                  !- Zone Cooling Design Supply Air Temperature Difference {deltaC}
  SupplyAirTemperature,                   !- Zone Heating Design Supply Air Temperature Input Method
  40,                                     !- Zone Heating Design Supply Air Temperature {C}
  11.11,                                  !- Zone Heating Design Supply Air Temperature Difference {deltaC}
  0.0085,                                 !- Zone Cooling Design Supply Air Humidity Ratio {kg-H2O/kg-air}
  0.008,                                  !- Zone Heating Design Supply Air Humidity Ratio {kg-H2O/kg-air}
  ,                                       !- Zone Heating Sizing Factor
  ,                                       !- Zone Cooling Sizing Factor
  DesignDay,                              !- Cooling Design Air Flow Method
  ,                                       !- Cooling Design Air Flow Rate {m3/s}
  ,                                       !- Cooling Minimum Air Flow per Zone Floor Area {m3/s-m2}
  ,                                       !- Cooling Minimum Air Flow {m3/s}
  ,                                       !- Cooling Minimum Air Flow Fraction
  DesignDay,                              !- Heating Design Air Flow Method
  ,                                       !- Heating Design Air Flow Rate {m3/s}
  ,                                       !- Heating Maximum Air Flow per Zone Floor Area {m3/s-m2}
  ,                                       !- Heating Maximum Air Flow {m3/s}
  ,                                       !- Heating Maximum Air Flow Fraction
  ,                                       !- Design Zone Air Distribution Effectiveness in Cooling Mode
  ,                                       !- Design Zone Air Distribution Effectiveness in Heating Mode
  No,                                     !- Account for Dedicated Outdoor Air System
  NeutralSupplyAir,                       !- Dedicated Outdoor Air System Control Strategy
  autosize,                               !- Dedicated Outdoor Air Low Setpoint Temperature for Design {C}
  autosize;                               !- Dedicated Outdoor Air High Setpoint Temperature for Design {C}

OS:ZoneHVAC:EquipmentList,
  {fd4f506d-c34c-46e8-8f09-1f535b96d37c}, !- Handle
  Zone HVAC Equipment List 1,             !- Name
  {c5ce5f84-90de-43ff-916e-c68137e97da0}, !- Thermal Zone
  SequentialLoad,                         !- Load Distribution Scheme
  {586cba00-c4ae-4d94-8ab5-e3dc551bd40c}, !- Zone Equipment 1
  1,                                      !- Zone Equipment Cooling Sequence 1
  1,                                      !- Zone Equipment Heating or No-Load Sequence 1
  ,                                       !- Zone Equipment Sequential Cooling Fraction Schedule Name 1
  ,                                       !- Zone Equipment Sequential Heating Fraction Schedule Name 1
  {f3b86fa7-57f9-4eee-9be1-c5103277142c}, !- Zone Equipment 2
  2,                                      !- Zone Equipment Cooling Sequence 2
  2,                                      !- Zone Equipment Heating or No-Load Sequence 2
  ,                                       !- Zone Equipment Sequential Cooling Fraction Schedule Name 2
  ;                                       !- Zone Equipment Sequential Heating Fraction Schedule Name 2

OS:Space,
  {3fea44c4-a625-43b0-a056-34587a4130d3}, !- Handle
  living space,                           !- Name
  {5a718bf0-4a27-484b-acaa-7edf632497d7}, !- Space Type Name
  ,                                       !- Default Construction Set Name
  ,                                       !- Default Schedule Set Name
  ,                                       !- Direction of Relative North {deg}
  ,                                       !- X Origin {m}
  ,                                       !- Y Origin {m}
  ,                                       !- Z Origin {m}
  {482b0ae6-d709-4f6a-b9c3-3b74c1018eb5}, !- Building Story Name
  {c5ce5f84-90de-43ff-916e-c68137e97da0}, !- Thermal Zone Name
  ,                                       !- Part of Total Floor Area
  ,                                       !- Design Specification Outdoor Air Object Name
  {f53fa8a6-acdf-46b1-afe8-3770fa46441b}; !- Building Unit Name

OS:Surface,
  {838d7de8-3892-4020-bf96-3ce722a2cfdd}, !- Handle
  Surface 1,                              !- Name
  Floor,                                  !- Surface Type
  ,                                       !- Construction Name
  {3fea44c4-a625-43b0-a056-34587a4130d3}, !- Space Name
  Foundation,                             !- Outside Boundary Condition
  ,                                       !- Outside Boundary Condition Object
  NoSun,                                  !- Sun Exposure
  NoWind,                                 !- Wind Exposure
  ,                                       !- View Factor to Ground
  ,                                       !- Number of Vertices
  0, -12.9315688143396, 0,                !- X,Y,Z Vertex 1 {m}
  0, 0, 0,                                !- X,Y,Z Vertex 2 {m}
  6.46578440716979, 0, 0,                 !- X,Y,Z Vertex 3 {m}
  6.46578440716979, -12.9315688143396, 0; !- X,Y,Z Vertex 4 {m}

OS:Surface,
  {8c206790-02f0-4eb3-8cad-f4bde2815ee6}, !- Handle
  Surface 2,                              !- Name
  Wall,                                   !- Surface Type
  ,                                       !- Construction Name
  {3fea44c4-a625-43b0-a056-34587a4130d3}, !- Space Name
  Outdoors,                               !- Outside Boundary Condition
  ,                                       !- Outside Boundary Condition Object
  SunExposed,                             !- Sun Exposure
  WindExposed,                            !- Wind Exposure
  ,                                       !- View Factor to Ground
  ,                                       !- Number of Vertices
  0, 0, 2.4384,                           !- X,Y,Z Vertex 1 {m}
  0, 0, 0,                                !- X,Y,Z Vertex 2 {m}
  0, -12.9315688143396, 0,                !- X,Y,Z Vertex 3 {m}
  0, -12.9315688143396, 2.4384;           !- X,Y,Z Vertex 4 {m}

OS:Surface,
  {bdb59f22-8c32-4eed-a7a5-1cf7d4f6f598}, !- Handle
  Surface 3,                              !- Name
  Wall,                                   !- Surface Type
  ,                                       !- Construction Name
  {3fea44c4-a625-43b0-a056-34587a4130d3}, !- Space Name
  Adiabatic,                              !- Outside Boundary Condition
  ,                                       !- Outside Boundary Condition Object
  NoSun,                                  !- Sun Exposure
  NoWind,                                 !- Wind Exposure
  ,                                       !- View Factor to Ground
  ,                                       !- Number of Vertices
  6.46578440716979, 0, 2.4384,            !- X,Y,Z Vertex 1 {m}
  6.46578440716979, 0, 0,                 !- X,Y,Z Vertex 2 {m}
  0, 0, 0,                                !- X,Y,Z Vertex 3 {m}
  0, 0, 2.4384;                           !- X,Y,Z Vertex 4 {m}

OS:Surface,
  {dfd5b489-7ebe-4865-ac9d-ddea95c85ef3}, !- Handle
  Surface 4,                              !- Name
  Wall,                                   !- Surface Type
  ,                                       !- Construction Name
  {3fea44c4-a625-43b0-a056-34587a4130d3}, !- Space Name
  Surface,                                !- Outside Boundary Condition
  {032bde48-daff-4b88-9d72-8024f88187ca}, !- Outside Boundary Condition Object
  NoSun,                                  !- Sun Exposure
  NoWind,                                 !- Wind Exposure
  ,                                       !- View Factor to Ground
  ,                                       !- Number of Vertices
  6.46578440716979, -12.9315688143396, 2.4384, !- X,Y,Z Vertex 1 {m}
  6.46578440716979, -12.9315688143396, 0, !- X,Y,Z Vertex 2 {m}
  6.46578440716979, 0, 0,                 !- X,Y,Z Vertex 3 {m}
  6.46578440716979, 0, 2.4384;            !- X,Y,Z Vertex 4 {m}

OS:Surface,
  {0e02991f-1240-43cb-beb2-ed6aa62a4464}, !- Handle
  Surface 5,                              !- Name
  Wall,                                   !- Surface Type
  ,                                       !- Construction Name
  {3fea44c4-a625-43b0-a056-34587a4130d3}, !- Space Name
  Outdoors,                               !- Outside Boundary Condition
  ,                                       !- Outside Boundary Condition Object
  SunExposed,                             !- Sun Exposure
  WindExposed,                            !- Wind Exposure
  ,                                       !- View Factor to Ground
  ,                                       !- Number of Vertices
  0, -12.9315688143396, 2.4384,           !- X,Y,Z Vertex 1 {m}
  0, -12.9315688143396, 0,                !- X,Y,Z Vertex 2 {m}
  6.46578440716979, -12.9315688143396, 0, !- X,Y,Z Vertex 3 {m}
  6.46578440716979, -12.9315688143396, 2.4384; !- X,Y,Z Vertex 4 {m}

OS:Surface,
  {6a1df1b1-5452-4ed6-beb7-5fb3cc8a1d31}, !- Handle
  Surface 6,                              !- Name
  RoofCeiling,                            !- Surface Type
  ,                                       !- Construction Name
  {3fea44c4-a625-43b0-a056-34587a4130d3}, !- Space Name
  Surface,                                !- Outside Boundary Condition
  {1cafb746-4bb3-4663-ab1e-d6dc4c9fb0c4}, !- Outside Boundary Condition Object
  NoSun,                                  !- Sun Exposure
  NoWind,                                 !- Wind Exposure
  ,                                       !- View Factor to Ground
  ,                                       !- Number of Vertices
  6.46578440716979, -12.9315688143396, 2.4384, !- X,Y,Z Vertex 1 {m}
  6.46578440716979, 0, 2.4384,            !- X,Y,Z Vertex 2 {m}
  0, 0, 2.4384,                           !- X,Y,Z Vertex 3 {m}
  0, -12.9315688143396, 2.4384;           !- X,Y,Z Vertex 4 {m}

OS:SpaceType,
  {5a718bf0-4a27-484b-acaa-7edf632497d7}, !- Handle
  Space Type 1,                           !- Name
  ,                                       !- Default Construction Set Name
  ,                                       !- Default Schedule Set Name
  ,                                       !- Group Rendering Name
  ,                                       !- Design Specification Outdoor Air Object Name
  ,                                       !- Standards Template
  ,                                       !- Standards Building Type
  living;                                 !- Standards Space Type

OS:ThermalZone,
  {38a4fd96-3e40-44a8-9ed9-8c9d32917718}, !- Handle
  living zone|unit 2,                     !- Name
  ,                                       !- Multiplier
  ,                                       !- Ceiling Height {m}
  ,                                       !- Volume {m3}
  ,                                       !- Floor Area {m2}
  ,                                       !- Zone Inside Convection Algorithm
  ,                                       !- Zone Outside Convection Algorithm
  ,                                       !- Zone Conditioning Equipment List Name
  {5e46e29c-80dd-40d0-8fa3-752ce93f943e}, !- Zone Air Inlet Port List
  {f19374e6-4b99-4639-8f0b-85d58b9e1e2a}, !- Zone Air Exhaust Port List
  {cd70efec-f16e-4147-8691-508a19b90834}, !- Zone Air Node Name
  {82ce268a-02b8-463f-af58-d8ad44e7ec23}, !- Zone Return Air Port List
  ,                                       !- Primary Daylighting Control Name
  ,                                       !- Fraction of Zone Controlled by Primary Daylighting Control
  ,                                       !- Secondary Daylighting Control Name
  ,                                       !- Fraction of Zone Controlled by Secondary Daylighting Control
  ,                                       !- Illuminance Map Name
  ,                                       !- Group Rendering Name
  {f4cdb588-b8f0-4953-b509-5858732a678a}, !- Thermostat Name
  No;                                     !- Use Ideal Air Loads

OS:Node,
  {84b32f5a-d50f-431e-82dd-e1f9e7530226}, !- Handle
  Node 2,                                 !- Name
  {cd70efec-f16e-4147-8691-508a19b90834}, !- Inlet Port
  ;                                       !- Outlet Port

OS:Connection,
  {cd70efec-f16e-4147-8691-508a19b90834}, !- Handle
  {caa0915a-89e0-4057-8d1f-5c89c19ce246}, !- Name
  {38a4fd96-3e40-44a8-9ed9-8c9d32917718}, !- Source Object
  11,                                     !- Outlet Port
  {84b32f5a-d50f-431e-82dd-e1f9e7530226}, !- Target Object
  2;                                      !- Inlet Port

OS:PortList,
  {5e46e29c-80dd-40d0-8fa3-752ce93f943e}, !- Handle
  {762bc66e-c2ac-4706-9989-977594b9f7d2}, !- Name
  {38a4fd96-3e40-44a8-9ed9-8c9d32917718}, !- HVAC Component
  {ea2d75a0-6da0-43b0-845c-e27080841e4a}, !- Port 1
  {e3f60d67-05d7-484d-a6b5-72c70b8f9e8e}; !- Port 2

OS:PortList,
  {f19374e6-4b99-4639-8f0b-85d58b9e1e2a}, !- Handle
  {b3173af9-7601-439b-8fce-3fc21122108f}, !- Name
  {38a4fd96-3e40-44a8-9ed9-8c9d32917718}; !- HVAC Component

OS:PortList,
  {82ce268a-02b8-463f-af58-d8ad44e7ec23}, !- Handle
  {6f9c9714-5aea-4080-9c9d-6d1dbf8606f7}, !- Name
  {38a4fd96-3e40-44a8-9ed9-8c9d32917718}, !- HVAC Component
  {43a98be4-1e5a-4357-a454-fd352188fa80}, !- Port 1
  {452cbcd5-3957-48fa-9065-77fc4ab08515}; !- Port 2

OS:Sizing:Zone,
  {80a0d8cf-812a-4a16-8c4d-88cdf4294d1b}, !- Handle
  {38a4fd96-3e40-44a8-9ed9-8c9d32917718}, !- Zone or ZoneList Name
  SupplyAirTemperature,                   !- Zone Cooling Design Supply Air Temperature Input Method
  14,                                     !- Zone Cooling Design Supply Air Temperature {C}
  11.11,                                  !- Zone Cooling Design Supply Air Temperature Difference {deltaC}
  SupplyAirTemperature,                   !- Zone Heating Design Supply Air Temperature Input Method
  40,                                     !- Zone Heating Design Supply Air Temperature {C}
  11.11,                                  !- Zone Heating Design Supply Air Temperature Difference {deltaC}
  0.0085,                                 !- Zone Cooling Design Supply Air Humidity Ratio {kg-H2O/kg-air}
  0.008,                                  !- Zone Heating Design Supply Air Humidity Ratio {kg-H2O/kg-air}
  ,                                       !- Zone Heating Sizing Factor
  ,                                       !- Zone Cooling Sizing Factor
  DesignDay,                              !- Cooling Design Air Flow Method
  ,                                       !- Cooling Design Air Flow Rate {m3/s}
  ,                                       !- Cooling Minimum Air Flow per Zone Floor Area {m3/s-m2}
  ,                                       !- Cooling Minimum Air Flow {m3/s}
  ,                                       !- Cooling Minimum Air Flow Fraction
  DesignDay,                              !- Heating Design Air Flow Method
  ,                                       !- Heating Design Air Flow Rate {m3/s}
  ,                                       !- Heating Maximum Air Flow per Zone Floor Area {m3/s-m2}
  ,                                       !- Heating Maximum Air Flow {m3/s}
  ,                                       !- Heating Maximum Air Flow Fraction
  ,                                       !- Design Zone Air Distribution Effectiveness in Cooling Mode
  ,                                       !- Design Zone Air Distribution Effectiveness in Heating Mode
  No,                                     !- Account for Dedicated Outdoor Air System
  NeutralSupplyAir,                       !- Dedicated Outdoor Air System Control Strategy
  autosize,                               !- Dedicated Outdoor Air Low Setpoint Temperature for Design {C}
  autosize;                               !- Dedicated Outdoor Air High Setpoint Temperature for Design {C}

OS:ZoneHVAC:EquipmentList,
  {5674ce07-f38e-423e-a1ad-985bbe6a0238}, !- Handle
  Zone HVAC Equipment List 2,             !- Name
  {38a4fd96-3e40-44a8-9ed9-8c9d32917718}, !- Thermal Zone
  SequentialLoad,                         !- Load Distribution Scheme
  {f697716b-4015-4c46-b48d-9f5ad3632806}, !- Zone Equipment 1
  1,                                      !- Zone Equipment Cooling Sequence 1
  1,                                      !- Zone Equipment Heating or No-Load Sequence 1
  ,                                       !- Zone Equipment Sequential Cooling Fraction Schedule Name 1
  ,                                       !- Zone Equipment Sequential Heating Fraction Schedule Name 1
  {f64fccc8-dedf-484d-92ef-cd0f833054b1}, !- Zone Equipment 2
  2,                                      !- Zone Equipment Cooling Sequence 2
  2,                                      !- Zone Equipment Heating or No-Load Sequence 2
  ,                                       !- Zone Equipment Sequential Cooling Fraction Schedule Name 2
  ;                                       !- Zone Equipment Sequential Heating Fraction Schedule Name 2

OS:Space,
  {72b0caba-2ec8-461b-b83a-aca13494879b}, !- Handle
  living space|unit 2,                    !- Name
  {5a718bf0-4a27-484b-acaa-7edf632497d7}, !- Space Type Name
  ,                                       !- Default Construction Set Name
  ,                                       !- Default Schedule Set Name
  ,                                       !- Direction of Relative North {deg}
  ,                                       !- X Origin {m}
  ,                                       !- Y Origin {m}
  ,                                       !- Z Origin {m}
  {482b0ae6-d709-4f6a-b9c3-3b74c1018eb5}, !- Building Story Name
  {38a4fd96-3e40-44a8-9ed9-8c9d32917718}, !- Thermal Zone Name
  ,                                       !- Part of Total Floor Area
  ,                                       !- Design Specification Outdoor Air Object Name
  {068d1cb2-e728-4f71-89ca-2e7d120046d1}; !- Building Unit Name

OS:Surface,
  {870dbb23-cd24-43e9-a77b-525442c1fc2b}, !- Handle
  Surface 7,                              !- Name
  Floor,                                  !- Surface Type
  ,                                       !- Construction Name
  {72b0caba-2ec8-461b-b83a-aca13494879b}, !- Space Name
  Foundation,                             !- Outside Boundary Condition
  ,                                       !- Outside Boundary Condition Object
  NoSun,                                  !- Sun Exposure
  NoWind,                                 !- Wind Exposure
  ,                                       !- View Factor to Ground
  ,                                       !- Number of Vertices
  0, 3.048, 0,                            !- X,Y,Z Vertex 1 {m}
  0, 15.9795688143396, 0,                 !- X,Y,Z Vertex 2 {m}
  6.46578440716979, 15.9795688143396, 0,  !- X,Y,Z Vertex 3 {m}
  6.46578440716979, 3.048, 0;             !- X,Y,Z Vertex 4 {m}

OS:Surface,
  {da1db1d9-b174-4ee3-ab46-17471a32daeb}, !- Handle
  Surface 8,                              !- Name
  Wall,                                   !- Surface Type
  ,                                       !- Construction Name
  {72b0caba-2ec8-461b-b83a-aca13494879b}, !- Space Name
  Outdoors,                               !- Outside Boundary Condition
  ,                                       !- Outside Boundary Condition Object
  SunExposed,                             !- Sun Exposure
  WindExposed,                            !- Wind Exposure
  ,                                       !- View Factor to Ground
  ,                                       !- Number of Vertices
  0, 15.9795688143396, 2.4384,            !- X,Y,Z Vertex 1 {m}
  0, 15.9795688143396, 0,                 !- X,Y,Z Vertex 2 {m}
  0, 3.048, 0,                            !- X,Y,Z Vertex 3 {m}
  0, 3.048, 2.4384;                       !- X,Y,Z Vertex 4 {m}

OS:Surface,
  {b55abfe0-8433-4642-adb2-7759623ca7a7}, !- Handle
  Surface 9,                              !- Name
  Wall,                                   !- Surface Type
  ,                                       !- Construction Name
  {72b0caba-2ec8-461b-b83a-aca13494879b}, !- Space Name
  Outdoors,                               !- Outside Boundary Condition
  ,                                       !- Outside Boundary Condition Object
  SunExposed,                             !- Sun Exposure
  WindExposed,                            !- Wind Exposure
  ,                                       !- View Factor to Ground
  ,                                       !- Number of Vertices
  6.46578440716979, 15.9795688143396, 2.4384, !- X,Y,Z Vertex 1 {m}
  6.46578440716979, 15.9795688143396, 0,  !- X,Y,Z Vertex 2 {m}
  0, 15.9795688143396, 0,                 !- X,Y,Z Vertex 3 {m}
  0, 15.9795688143396, 2.4384;            !- X,Y,Z Vertex 4 {m}

OS:Surface,
  {2b132c3c-61f2-47a8-a306-4b351524ffbb}, !- Handle
  Surface 10,                             !- Name
  Wall,                                   !- Surface Type
  ,                                       !- Construction Name
  {72b0caba-2ec8-461b-b83a-aca13494879b}, !- Space Name
  Surface,                                !- Outside Boundary Condition
  {815b1355-57e6-46ee-8604-f82e21df5579}, !- Outside Boundary Condition Object
  NoSun,                                  !- Sun Exposure
  NoWind,                                 !- Wind Exposure
  ,                                       !- View Factor to Ground
  ,                                       !- Number of Vertices
  6.46578440716979, 3.048, 2.4384,        !- X,Y,Z Vertex 1 {m}
  6.46578440716979, 3.048, 0,             !- X,Y,Z Vertex 2 {m}
  6.46578440716979, 15.9795688143396, 0,  !- X,Y,Z Vertex 3 {m}
  6.46578440716979, 15.9795688143396, 2.4384; !- X,Y,Z Vertex 4 {m}

OS:Surface,
  {ca189eaf-8b07-4c27-890c-92462b451628}, !- Handle
  Surface 11,                             !- Name
  Wall,                                   !- Surface Type
  ,                                       !- Construction Name
  {72b0caba-2ec8-461b-b83a-aca13494879b}, !- Space Name
  Adiabatic,                              !- Outside Boundary Condition
  ,                                       !- Outside Boundary Condition Object
  NoSun,                                  !- Sun Exposure
  NoWind,                                 !- Wind Exposure
  ,                                       !- View Factor to Ground
  ,                                       !- Number of Vertices
  0, 3.048, 2.4384,                       !- X,Y,Z Vertex 1 {m}
  0, 3.048, 0,                            !- X,Y,Z Vertex 2 {m}
  6.46578440716979, 3.048, 0,             !- X,Y,Z Vertex 3 {m}
  6.46578440716979, 3.048, 2.4384;        !- X,Y,Z Vertex 4 {m}

OS:Surface,
  {eaa161f6-e13e-4c77-bfd9-f2d5d48b1e14}, !- Handle
  Surface 12,                             !- Name
  RoofCeiling,                            !- Surface Type
  ,                                       !- Construction Name
  {72b0caba-2ec8-461b-b83a-aca13494879b}, !- Space Name
  Surface,                                !- Outside Boundary Condition
  {8f070f03-984a-4777-882c-3841e7c423e1}, !- Outside Boundary Condition Object
  NoSun,                                  !- Sun Exposure
  NoWind,                                 !- Wind Exposure
  ,                                       !- View Factor to Ground
  ,                                       !- Number of Vertices
  6.46578440716979, 3.048, 2.4384,        !- X,Y,Z Vertex 1 {m}
  6.46578440716979, 15.9795688143396, 2.4384, !- X,Y,Z Vertex 2 {m}
  0, 15.9795688143396, 2.4384,            !- X,Y,Z Vertex 3 {m}
  0, 3.048, 2.4384;                       !- X,Y,Z Vertex 4 {m}

OS:ThermalZone,
  {f90f1ff6-3175-47f5-a130-051bc259ba12}, !- Handle
  living zone|unit 3,                     !- Name
  ,                                       !- Multiplier
  ,                                       !- Ceiling Height {m}
  ,                                       !- Volume {m3}
  ,                                       !- Floor Area {m2}
  ,                                       !- Zone Inside Convection Algorithm