!- NOTE: Auto-generated from /test/osw_files/MF_40units_4story_SL_3Beds_2Baths_Denver_Furnace_CentralAC.osw

OS:Version,
  {b298fa5a-3e4e-455b-9322-e86c038924cb}, !- Handle
  2.9.0;                                  !- Version Identifier

OS:SimulationControl,
  {c9b00cc5-6fcb-44ea-9191-f54147d1f358}, !- Handle
  ,                                       !- Do Zone Sizing Calculation
  ,                                       !- Do System Sizing Calculation
  ,                                       !- Do Plant Sizing Calculation
  No;                                     !- Run Simulation for Sizing Periods

OS:Timestep,
  {fe52d2b2-17c6-4534-9c57-fcfbd90c1126}, !- Handle
  6;                                      !- Number of Timesteps per Hour

OS:ShadowCalculation,
  {338bd81c-0348-4134-b9db-d45cba9784fc}, !- Handle
  20,                                     !- Calculation Frequency
  200;                                    !- Maximum Figures in Shadow Overlap Calculations

OS:SurfaceConvectionAlgorithm:Outside,
  {3454ab3e-a9ce-46d8-8fa4-1d0fd6f606a3}, !- Handle
  DOE-2;                                  !- Algorithm

OS:SurfaceConvectionAlgorithm:Inside,
  {9e926cdc-7a64-4983-8563-93b6afd67c33}, !- Handle
  TARP;                                   !- Algorithm

OS:ZoneCapacitanceMultiplier:ResearchSpecial,
  {4ab1c410-5811-496b-af42-39d002c2a8c5}, !- Handle
  ,                                       !- Temperature Capacity Multiplier
  15,                                     !- Humidity Capacity Multiplier
  ;                                       !- Carbon Dioxide Capacity Multiplier

OS:RunPeriod,
  {86f964b4-fc38-494e-98fa-a9f479daa1fc}, !- Handle
  Run Period 1,                           !- Name
  1,                                      !- Begin Month
  1,                                      !- Begin Day of Month
  12,                                     !- End Month
  31,                                     !- End Day of Month
  ,                                       !- Use Weather File Holidays and Special Days
  ,                                       !- Use Weather File Daylight Saving Period
  ,                                       !- Apply Weekend Holiday Rule
  ,                                       !- Use Weather File Rain Indicators
  ,                                       !- Use Weather File Snow Indicators
  ;                                       !- Number of Times Runperiod to be Repeated

OS:YearDescription,
  {a4702e9a-bf48-4a89-8794-2f9695d1606e}, !- Handle
  2007,                                   !- Calendar Year
  ,                                       !- Day of Week for Start Day
  ;                                       !- Is Leap Year

OS:ThermalZone,
  {60f40c34-3f0b-4e5a-8254-7a2a947ca6e8}, !- Handle
  living zone,                            !- Name
  ,                                       !- Multiplier
  ,                                       !- Ceiling Height {m}
  ,                                       !- Volume {m3}
  ,                                       !- Floor Area {m2}
  ,                                       !- Zone Inside Convection Algorithm
  ,                                       !- Zone Outside Convection Algorithm
  ,                                       !- Zone Conditioning Equipment List Name
  {2c8fd8c5-824a-435e-8637-c25ae15c0682}, !- Zone Air Inlet Port List
  {864ee445-81f7-44f1-b9ad-90c3eb2f167d}, !- Zone Air Exhaust Port List
  {7fc5c732-c3ee-4de9-8841-9e9f8c66db45}, !- Zone Air Node Name
  {db2c84b6-f093-4a6b-87c5-7308a7c3187d}, !- Zone Return Air Port List
  ,                                       !- Primary Daylighting Control Name
  ,                                       !- Fraction of Zone Controlled by Primary Daylighting Control
  ,                                       !- Secondary Daylighting Control Name
  ,                                       !- Fraction of Zone Controlled by Secondary Daylighting Control
  ,                                       !- Illuminance Map Name
  ,                                       !- Group Rendering Name
  {94966ba0-44b1-4452-b29d-ef96fefb77dd}, !- Thermostat Name
  No;                                     !- Use Ideal Air Loads

OS:Node,
  {b1e27222-b31e-4910-9a5f-58a48528fe4e}, !- Handle
  Node 1,                                 !- Name
  {7fc5c732-c3ee-4de9-8841-9e9f8c66db45}, !- Inlet Port
  ;                                       !- Outlet Port

OS:Connection,
  {7fc5c732-c3ee-4de9-8841-9e9f8c66db45}, !- Handle
  {f95ed024-0c56-471a-9b1d-17d67f53eef3}, !- Name
  {60f40c34-3f0b-4e5a-8254-7a2a947ca6e8}, !- Source Object
  11,                                     !- Outlet Port
  {b1e27222-b31e-4910-9a5f-58a48528fe4e}, !- Target Object
  2;                                      !- Inlet Port

OS:PortList,
  {2c8fd8c5-824a-435e-8637-c25ae15c0682}, !- Handle
  {86c3a9bf-c035-428e-a299-9166d4387ad0}, !- Name
  {60f40c34-3f0b-4e5a-8254-7a2a947ca6e8}, !- HVAC Component
  {9bfc902f-ceb5-4f8c-ada5-54e6f3e0a3ff}, !- Port 1
  {cc159ef8-4002-41f4-a1ec-a0466b9591af}; !- Port 2

OS:PortList,
  {864ee445-81f7-44f1-b9ad-90c3eb2f167d}, !- Handle
  {3d169a32-8e46-4ee1-b5b7-28f90e255c69}, !- Name
  {60f40c34-3f0b-4e5a-8254-7a2a947ca6e8}; !- HVAC Component

OS:PortList,
  {db2c84b6-f093-4a6b-87c5-7308a7c3187d}, !- Handle
  {3b004f5f-3787-44ef-8807-75a0289c4e19}, !- Name
  {60f40c34-3f0b-4e5a-8254-7a2a947ca6e8}, !- HVAC Component
  {5d6284c8-1913-4e2a-9b87-053658db02ad}, !- Port 1
  {62e886e3-ae70-49ed-b9db-645ac120cde1}; !- Port 2

OS:Sizing:Zone,
  {1d433c4d-f1fd-4a80-b99f-0397dab02ad2}, !- Handle
  {60f40c34-3f0b-4e5a-8254-7a2a947ca6e8}, !- Zone or ZoneList Name
  SupplyAirTemperature,                   !- Zone Cooling Design Supply Air Temperature Input Method
  14,                                     !- Zone Cooling Design Supply Air Temperature {C}
  11.11,                                  !- Zone Cooling Design Supply Air Temperature Difference {deltaC}
  SupplyAirTemperature,                   !- Zone Heating Design Supply Air Temperature Input Method
  40,                                     !- Zone Heating Design Supply Air Temperature {C}
  11.11,                                  !- Zone Heating Design Supply Air Temperature Difference {deltaC}
  0.0085,                                 !- Zone Cooling Design Supply Air Humidity Ratio {kg-H2O/kg-air}
  0.008,                                  !- Zone Heating Design Supply Air Humidity Ratio {kg-H2O/kg-air}
  ,                                       !- Zone Heating Sizing Factor
  ,                                       !- Zone Cooling Sizing Factor
  DesignDay,                              !- Cooling Design Air Flow Method
  ,                                       !- Cooling Design Air Flow Rate {m3/s}
  ,                                       !- Cooling Minimum Air Flow per Zone Floor Area {m3/s-m2}
  ,                                       !- Cooling Minimum Air Flow {m3/s}
  ,                                       !- Cooling Minimum Air Flow Fraction
  DesignDay,                              !- Heating Design Air Flow Method
  ,                                       !- Heating Design Air Flow Rate {m3/s}
  ,                                       !- Heating Maximum Air Flow per Zone Floor Area {m3/s-m2}
  ,                                       !- Heating Maximum Air Flow {m3/s}
  ,                                       !- Heating Maximum Air Flow Fraction
  ,                                       !- Design Zone Air Distribution Effectiveness in Cooling Mode
  ,                                       !- Design Zone Air Distribution Effectiveness in Heating Mode
  No,                                     !- Account for Dedicated Outdoor Air System
  NeutralSupplyAir,                       !- Dedicated Outdoor Air System Control Strategy
  autosize,                               !- Dedicated Outdoor Air Low Setpoint Temperature for Design {C}
  autosize;                               !- Dedicated Outdoor Air High Setpoint Temperature for Design {C}

OS:ZoneHVAC:EquipmentList,
  {0918dc4a-4d7f-4a05-af3f-c2f2060b5513}, !- Handle
  Zone HVAC Equipment List 1,             !- Name
  {60f40c34-3f0b-4e5a-8254-7a2a947ca6e8}, !- Thermal Zone
  SequentialLoad,                         !- Load Distribution Scheme
  {34182e66-3680-4bb3-b153-bd52ab56ac6a}, !- Zone Equipment 1
  1,                                      !- Zone Equipment Cooling Sequence 1
  1,                                      !- Zone Equipment Heating or No-Load Sequence 1
  ,                                       !- Zone Equipment Sequential Cooling Fraction Schedule Name 1
  ,                                       !- Zone Equipment Sequential Heating Fraction Schedule Name 1
  {6bcd65d8-8f29-4699-b81b-d06d9d0c03f2}, !- Zone Equipment 2
  2,                                      !- Zone Equipment Cooling Sequence 2
  2,                                      !- Zone Equipment Heating or No-Load Sequence 2
  ,                                       !- Zone Equipment Sequential Cooling Fraction Schedule Name 2
  ;                                       !- Zone Equipment Sequential Heating Fraction Schedule Name 2

OS:Space,
  {19e20989-f22c-4b96-81bb-18418a93af67}, !- Handle
  living space,                           !- Name
  {f66b6f75-c29b-4f1e-8da2-927ce2989ad4}, !- Space Type Name
  ,                                       !- Default Construction Set Name
  ,                                       !- Default Schedule Set Name
  ,                                       !- Direction of Relative North {deg}
  ,                                       !- X Origin {m}
  ,                                       !- Y Origin {m}
  ,                                       !- Z Origin {m}
  ,                                       !- Building Story Name
  {60f40c34-3f0b-4e5a-8254-7a2a947ca6e8}, !- Thermal Zone Name
  ,                                       !- Part of Total Floor Area
  ,                                       !- Design Specification Outdoor Air Object Name
  {eaaae02d-8315-4743-9773-1cdd30cb5a84}; !- Building Unit Name

OS:Surface,
  {d43906e1-e92a-4c34-8207-b9abf17f24bb}, !- Handle
  Surface 1,                              !- Name
  Floor,                                  !- Surface Type
  ,                                       !- Construction Name
  {19e20989-f22c-4b96-81bb-18418a93af67}, !- Space Name
  Foundation,                             !- Outside Boundary Condition
  ,                                       !- Outside Boundary Condition Object
  NoSun,                                  !- Sun Exposure
  NoWind,                                 !- Wind Exposure
  ,                                       !- View Factor to Ground
  ,                                       !- Number of Vertices
  0, -12.9315688143396, 0,                !- X,Y,Z Vertex 1 {m}
  0, 0, 0,                                !- X,Y,Z Vertex 2 {m}
  6.46578440716979, 0, 0,                 !- X,Y,Z Vertex 3 {m}
  6.46578440716979, -12.9315688143396, 0; !- X,Y,Z Vertex 4 {m}

OS:Surface,
  {3af76200-cc79-48eb-9872-7229fda2c640}, !- Handle
  Surface 2,                              !- Name
  Wall,                                   !- Surface Type
  ,                                       !- Construction Name
  {19e20989-f22c-4b96-81bb-18418a93af67}, !- Space Name
  Outdoors,                               !- Outside Boundary Condition
  ,                                       !- Outside Boundary Condition Object
  SunExposed,                             !- Sun Exposure
  WindExposed,                            !- Wind Exposure
  ,                                       !- View Factor to Ground
  ,                                       !- Number of Vertices
  0, 0, 2.4384,                           !- X,Y,Z Vertex 1 {m}
  0, 0, 0,                                !- X,Y,Z Vertex 2 {m}
  0, -12.9315688143396, 0,                !- X,Y,Z Vertex 3 {m}
  0, -12.9315688143396, 2.4384;           !- X,Y,Z Vertex 4 {m}

OS:Surface,
  {0da7c3bb-c976-4e70-b6a7-3a9fc63ce8d1}, !- Handle
  Surface 3,                              !- Name
  Wall,                                   !- Surface Type
  ,                                       !- Construction Name
  {19e20989-f22c-4b96-81bb-18418a93af67}, !- Space Name
  Adiabatic,                              !- Outside Boundary Condition
  ,                                       !- Outside Boundary Condition Object
  NoSun,                                  !- Sun Exposure
  NoWind,                                 !- Wind Exposure
  ,                                       !- View Factor to Ground
  ,                                       !- Number of Vertices
  6.46578440716979, 0, 2.4384,            !- X,Y,Z Vertex 1 {m}
  6.46578440716979, 0, 0,                 !- X,Y,Z Vertex 2 {m}
  0, 0, 0,                                !- X,Y,Z Vertex 3 {m}
  0, 0, 2.4384;                           !- X,Y,Z Vertex 4 {m}

OS:Surface,
  {2d65f12c-25ff-4eca-9d3c-b80c69e02885}, !- Handle
  Surface 4,                              !- Name
  Wall,                                   !- Surface Type
  ,                                       !- Construction Name
  {19e20989-f22c-4b96-81bb-18418a93af67}, !- Space Name
  Surface,                                !- Outside Boundary Condition
  {502ea6b5-20bb-4933-9045-c6defdaacb17}, !- Outside Boundary Condition Object
  NoSun,                                  !- Sun Exposure
  NoWind,                                 !- Wind Exposure
  ,                                       !- View Factor to Ground
  ,                                       !- Number of Vertices
  6.46578440716979, -12.9315688143396, 2.4384, !- X,Y,Z Vertex 1 {m}
  6.46578440716979, -12.9315688143396, 0, !- X,Y,Z Vertex 2 {m}
  6.46578440716979, 0, 0,                 !- X,Y,Z Vertex 3 {m}
  6.46578440716979, 0, 2.4384;            !- X,Y,Z Vertex 4 {m}

OS:Surface,
  {66c72d22-7001-42bc-a623-58be076bea46}, !- Handle
  Surface 5,                              !- Name
  Wall,                                   !- Surface Type
  ,                                       !- Construction Name
  {19e20989-f22c-4b96-81bb-18418a93af67}, !- Space Name
  Outdoors,                               !- Outside Boundary Condition
  ,                                       !- Outside Boundary Condition Object
  SunExposed,                             !- Sun Exposure
  WindExposed,                            !- Wind Exposure
  ,                                       !- View Factor to Ground
  ,                                       !- Number of Vertices
  0, -12.9315688143396, 2.4384,           !- X,Y,Z Vertex 1 {m}
  0, -12.9315688143396, 0,                !- X,Y,Z Vertex 2 {m}
  6.46578440716979, -12.9315688143396, 0, !- X,Y,Z Vertex 3 {m}
  6.46578440716979, -12.9315688143396, 2.4384; !- X,Y,Z Vertex 4 {m}

OS:Surface,
  {a173f448-5f50-43db-bf8e-b1fec647c632}, !- Handle
  Surface 6,                              !- Name
  RoofCeiling,                            !- Surface Type
  ,                                       !- Construction Name
  {19e20989-f22c-4b96-81bb-18418a93af67}, !- Space Name
  Surface,                                !- Outside Boundary Condition
  {f149bd14-63b4-490a-b3b0-518e10ce2623}, !- Outside Boundary Condition Object
  NoSun,                                  !- Sun Exposure
  NoWind,                                 !- Wind Exposure
  ,                                       !- View Factor to Ground
  ,                                       !- Number of Vertices
  6.46578440716979, -12.9315688143396, 2.4384, !- X,Y,Z Vertex 1 {m}
  6.46578440716979, 0, 2.4384,            !- X,Y,Z Vertex 2 {m}
  0, 0, 2.4384,                           !- X,Y,Z Vertex 3 {m}
  0, -12.9315688143396, 2.4384;           !- X,Y,Z Vertex 4 {m}

OS:SpaceType,
  {f66b6f75-c29b-4f1e-8da2-927ce2989ad4}, !- Handle
  Space Type 1,                           !- Name
  ,                                       !- Default Construction Set Name
  ,                                       !- Default Schedule Set Name
  ,                                       !- Group Rendering Name
  ,                                       !- Design Specification Outdoor Air Object Name
  ,                                       !- Standards Template
  ,                                       !- Standards Building Type
  living;                                 !- Standards Space Type

OS:ThermalZone,
  {e285ff5c-1285-4cc5-a194-d8f7e5dcb0e5}, !- Handle
  living zone|unit 2,                     !- Name
  ,                                       !- Multiplier
  ,                                       !- Ceiling Height {m}
  ,                                       !- Volume {m3}
  ,                                       !- Floor Area {m2}
  ,                                       !- Zone Inside Convection Algorithm
  ,                                       !- Zone Outside Convection Algorithm
  ,                                       !- Zone Conditioning Equipment List Name
  {ca7d0a09-c12e-4de7-ab25-8d1cd0ef3201}, !- Zone Air Inlet Port List
  {0873a076-8461-4c77-aa8a-ae621f907762}, !- Zone Air Exhaust Port List
  {bf6cb2a8-8e98-4930-90e0-a96dc68a8ecd}, !- Zone Air Node Name
  {96cc091d-2671-482b-bef1-068436929a49}, !- Zone Return Air Port List
  ,                                       !- Primary Daylighting Control Name
  ,                                       !- Fraction of Zone Controlled by Primary Daylighting Control
  ,                                       !- Secondary Daylighting Control Name
  ,                                       !- Fraction of Zone Controlled by Secondary Daylighting Control
  ,                                       !- Illuminance Map Name
  ,                                       !- Group Rendering Name
  {85d9de7c-ee58-40f4-b0f4-5d1f00a8477f}, !- Thermostat Name
  No;                                     !- Use Ideal Air Loads

OS:Node,
  {f29abaa8-4a91-44b0-aec6-863e1a526fd2}, !- Handle
  Node 2,                                 !- Name
  {bf6cb2a8-8e98-4930-90e0-a96dc68a8ecd}, !- Inlet Port
  ;                                       !- Outlet Port

OS:Connection,
  {bf6cb2a8-8e98-4930-90e0-a96dc68a8ecd}, !- Handle
  {d224e323-5ed3-4920-8b1c-26c0b608cf9b}, !- Name
  {e285ff5c-1285-4cc5-a194-d8f7e5dcb0e5}, !- Source Object
  11,                                     !- Outlet Port
  {f29abaa8-4a91-44b0-aec6-863e1a526fd2}, !- Target Object
  2;                                      !- Inlet Port

OS:PortList,
  {ca7d0a09-c12e-4de7-ab25-8d1cd0ef3201}, !- Handle
  {fb1c7ac1-b4aa-496e-b9f4-10b5d56c551a}, !- Name
  {e285ff5c-1285-4cc5-a194-d8f7e5dcb0e5}, !- HVAC Component
  {9467323f-5744-4a74-814b-3228a59f0c54}, !- Port 1
  {270b08a1-7099-4243-9cd0-3ee46a192241}; !- Port 2

OS:PortList,
  {0873a076-8461-4c77-aa8a-ae621f907762}, !- Handle
  {3d5c2113-677d-441b-96a1-bb683e9a520f}, !- Name
  {e285ff5c-1285-4cc5-a194-d8f7e5dcb0e5}; !- HVAC Component

OS:PortList,
  {96cc091d-2671-482b-bef1-068436929a49}, !- Handle
  {d7aee36e-f5f1-4548-bb43-69b7488d0a2f}, !- Name
  {e285ff5c-1285-4cc5-a194-d8f7e5dcb0e5}, !- HVAC Component
  {3f361f6f-c609-47a2-894d-0c2940bd6d02}, !- Port 1
  {4b1ff640-2a4c-4092-b1ab-3e5f4f760bef}; !- Port 2

OS:Sizing:Zone,
  {90a29ef5-8571-4562-aace-585126aa7589}, !- Handle
  {e285ff5c-1285-4cc5-a194-d8f7e5dcb0e5}, !- Zone or ZoneList Name
  SupplyAirTemperature,                   !- Zone Cooling Design Supply Air Temperature Input Method
  14,                                     !- Zone Cooling Design Supply Air Temperature {C}
  11.11,                                  !- Zone Cooling Design Supply Air Temperature Difference {deltaC}
  SupplyAirTemperature,                   !- Zone Heating Design Supply Air Temperature Input Method
  40,                                     !- Zone Heating Design Supply Air Temperature {C}
  11.11,                                  !- Zone Heating Design Supply Air Temperature Difference {deltaC}
  0.0085,                                 !- Zone Cooling Design Supply Air Humidity Ratio {kg-H2O/kg-air}
  0.008,                                  !- Zone Heating Design Supply Air Humidity Ratio {kg-H2O/kg-air}
  ,                                       !- Zone Heating Sizing Factor
  ,                                       !- Zone Cooling Sizing Factor
  DesignDay,                              !- Cooling Design Air Flow Method
  ,                                       !- Cooling Design Air Flow Rate {m3/s}
  ,                                       !- Cooling Minimum Air Flow per Zone Floor Area {m3/s-m2}
  ,                                       !- Cooling Minimum Air Flow {m3/s}
  ,                                       !- Cooling Minimum Air Flow Fraction
  DesignDay,                              !- Heating Design Air Flow Method
  ,                                       !- Heating Design Air Flow Rate {m3/s}
  ,                                       !- Heating Maximum Air Flow per Zone Floor Area {m3/s-m2}
  ,                                       !- Heating Maximum Air Flow {m3/s}
  ,                                       !- Heating Maximum Air Flow Fraction
  ,                                       !- Design Zone Air Distribution Effectiveness in Cooling Mode
  ,                                       !- Design Zone Air Distribution Effectiveness in Heating Mode
  No,                                     !- Account for Dedicated Outdoor Air System
  NeutralSupplyAir,                       !- Dedicated Outdoor Air System Control Strategy
  autosize,                               !- Dedicated Outdoor Air Low Setpoint Temperature for Design {C}
  autosize;                               !- Dedicated Outdoor Air High Setpoint Temperature for Design {C}

OS:ZoneHVAC:EquipmentList,
  {93b1b21b-145a-4e69-ac6b-bfc9d9053848}, !- Handle
  Zone HVAC Equipment List 2,             !- Name
  {e285ff5c-1285-4cc5-a194-d8f7e5dcb0e5}, !- Thermal Zone
  SequentialLoad,                         !- Load Distribution Scheme
  {83b802b6-3809-42ad-93a7-d7490296b750}, !- Zone Equipment 1
  1,                                      !- Zone Equipment Cooling Sequence 1
  1,                                      !- Zone Equipment Heating or No-Load Sequence 1
  ,                                       !- Zone Equipment Sequential Cooling Fraction Schedule Name 1
  ,                                       !- Zone Equipment Sequential Heating Fraction Schedule Name 1
  {255b2ca1-124b-444e-ae4b-427b6864b23a}, !- Zone Equipment 2
  2,                                      !- Zone Equipment Cooling Sequence 2
  2,                                      !- Zone Equipment Heating or No-Load Sequence 2
  ,                                       !- Zone Equipment Sequential Cooling Fraction Schedule Name 2
  ;                                       !- Zone Equipment Sequential Heating Fraction Schedule Name 2

OS:Space,
  {9152710a-c074-4ece-b445-5e12cb4c53b3}, !- Handle
  living space|unit 2,                    !- Name
  {f66b6f75-c29b-4f1e-8da2-927ce2989ad4}, !- Space Type Name
  ,                                       !- Default Construction Set Name
  ,                                       !- Default Schedule Set Name
  ,                                       !- Direction of Relative North {deg}
  ,                                       !- X Origin {m}
  ,                                       !- Y Origin {m}
  ,                                       !- Z Origin {m}
  ,                                       !- Building Story Name
  {e285ff5c-1285-4cc5-a194-d8f7e5dcb0e5}, !- Thermal Zone Name
  ,                                       !- Part of Total Floor Area
  ,                                       !- Design Specification Outdoor Air Object Name
  {0cf5f474-2264-4b71-8bd1-c8514b53a1e2}; !- Building Unit Name

OS:Surface,
  {8760dffe-ca5c-4f6c-a17b-734eccb394d1}, !- Handle
  Surface 7,                              !- Name
  Floor,                                  !- Surface Type
  ,                                       !- Construction Name
  {9152710a-c074-4ece-b445-5e12cb4c53b3}, !- Space Name
  Foundation,                             !- Outside Boundary Condition
  ,                                       !- Outside Boundary Condition Object
  NoSun,                                  !- Sun Exposure
  NoWind,                                 !- Wind Exposure
  ,                                       !- View Factor to Ground
  ,                                       !- Number of Vertices
  0, 3.048, 0,                            !- X,Y,Z Vertex 1 {m}
  0, 15.9795688143396, 0,                 !- X,Y,Z Vertex 2 {m}
  6.46578440716979, 15.9795688143396, 0,  !- X,Y,Z Vertex 3 {m}
  6.46578440716979, 3.048, 0;             !- X,Y,Z Vertex 4 {m}

OS:Surface,
  {13d4c60d-d161-4daa-b695-94d88303a435}, !- Handle
  Surface 8,                              !- Name
  Wall,                                   !- Surface Type
  ,                                       !- Construction Name
  {9152710a-c074-4ece-b445-5e12cb4c53b3}, !- Space Name
  Outdoors,                               !- Outside Boundary Condition
  ,                                       !- Outside Boundary Condition Object
  SunExposed,                             !- Sun Exposure
  WindExposed,                            !- Wind Exposure
  ,                                       !- View Factor to Ground
  ,                                       !- Number of Vertices
  0, 15.9795688143396, 2.4384,            !- X,Y,Z Vertex 1 {m}
  0, 15.9795688143396, 0,                 !- X,Y,Z Vertex 2 {m}
  0, 3.048, 0,                            !- X,Y,Z Vertex 3 {m}
  0, 3.048, 2.4384;                       !- X,Y,Z Vertex 4 {m}

OS:Surface,
  {05c6d19c-9220-47ed-8390-8c81b6a371a5}, !- Handle
  Surface 9,                              !- Name
  Wall,                                   !- Surface Type
  ,                                       !- Construction Name
  {9152710a-c074-4ece-b445-5e12cb4c53b3}, !- Space Name
  Outdoors,                               !- Outside Boundary Condition
  ,                                       !- Outside Boundary Condition Object
  SunExposed,                             !- Sun Exposure
  WindExposed,                            !- Wind Exposure
  ,                                       !- View Factor to Ground
  ,                                       !- Number of Vertices
  6.46578440716979, 15.9795688143396, 2.4384, !- X,Y,Z Vertex 1 {m}
  6.46578440716979, 15.9795688143396, 0,  !- X,Y,Z Vertex 2 {m}
  0, 15.9795688143396, 0,                 !- X,Y,Z Vertex 3 {m}
  0, 15.9795688143396, 2.4384;            !- X,Y,Z Vertex 4 {m}

OS:Surface,
  {a1519aa6-ac7b-4ba7-a368-3002f4824fad}, !- Handle
  Surface 10,                             !- Name
  Wall,                                   !- Surface Type
  ,                                       !- Construction Name
  {9152710a-c074-4ece-b445-5e12cb4c53b3}, !- Space Name
  Surface,                                !- Outside Boundary Condition
  {6cf10159-f7dc-492e-a79f-46fa64dc0947}, !- Outside Boundary Condition Object
  NoSun,                                  !- Sun Exposure
  NoWind,                                 !- Wind Exposure
  ,                                       !- View Factor to Ground
  ,                                       !- Number of Vertices
  6.46578440716979, 3.048, 2.4384,        !- X,Y,Z Vertex 1 {m}
  6.46578440716979, 3.048, 0,             !- X,Y,Z Vertex 2 {m}
  6.46578440716979, 15.9795688143396, 0,  !- X,Y,Z Vertex 3 {m}
  6.46578440716979, 15.9795688143396, 2.4384; !- X,Y,Z Vertex 4 {m}

OS:Surface,
  {9b0da997-2590-44a4-93ca-7c57f806845d}, !- Handle
  Surface 11,                             !- Name
  Wall,                                   !- Surface Type
  ,                                       !- Construction Name
  {9152710a-c074-4ece-b445-5e12cb4c53b3}, !- Space Name
  Adiabatic,                              !- Outside Boundary Condition
  ,                                       !- Outside Boundary Condition Object
  NoSun,                                  !- Sun Exposure
  NoWind,                                 !- Wind Exposure
  ,                                       !- View Factor to Ground
  ,                                       !- Number of Vertices
  0, 3.048, 2.4384,                       !- X,Y,Z Vertex 1 {m}
  0, 3.048, 0,                            !- X,Y,Z Vertex 2 {m}
  6.46578440716979, 3.048, 0,             !- X,Y,Z Vertex 3 {m}
  6.46578440716979, 3.048, 2.4384;        !- X,Y,Z Vertex 4 {m}

OS:Surface,
  {005f5c9b-e80c-4f4f-892d-3254e1dd2a2d}, !- Handle
  Surface 12,                             !- Name
  RoofCeiling,                            !- Surface Type
  ,                                       !- Construction Name
  {9152710a-c074-4ece-b445-5e12cb4c53b3}, !- Space Name
  Surface,                                !- Outside Boundary Condition
  {d965fba2-e3b3-4bfc-adfe-d3496ec59b5d}, !- Outside Boundary Condition Object
  NoSun,                                  !- Sun Exposure
  NoWind,                                 !- Wind Exposure
  ,                                       !- View Factor to Ground
  ,                                       !- Number of Vertices
  6.46578440716979, 3.048, 2.4384,        !- X,Y,Z Vertex 1 {m}
  6.46578440716979, 15.9795688143396, 2.4384, !- X,Y,Z Vertex 2 {m}
  0, 15.9795688143396, 2.4384,            !- X,Y,Z Vertex 3 {m}
  0, 3.048, 2.4384;                       !- X,Y,Z Vertex 4 {m}

OS:ThermalZone,
  {04a2ae68-7fed-49c6-a327-418b3b4e8f84}, !- Handle
  living zone|unit 3,                     !- Name
  ,                                       !- Multiplier
  ,                                       !- Ceiling Height {m}
  ,                                       !- Volume {m3}
  ,                                       !- Floor Area {m2}
  ,                                       !- Zone Inside Convection Algorithm