!- NOTE: Auto-generated from /test/osw_files/MF_40units_4story_CS_3Beds_2Baths_Denver.osw

OS:Version,
  {15591ce6-6502-4d97-b010-9b3a15554a1d}, !- Handle
  2.9.0;                                  !- Version Identifier

OS:SimulationControl,
  {8133ef1d-406b-4808-8373-9f8e630e5bd8}, !- Handle
  ,                                       !- Do Zone Sizing Calculation
  ,                                       !- Do System Sizing Calculation
  ,                                       !- Do Plant Sizing Calculation
  No;                                     !- Run Simulation for Sizing Periods

OS:Timestep,
  {38ca57eb-38f8-4d1d-8f02-7ffccc74ed18}, !- Handle
  6;                                      !- Number of Timesteps per Hour

OS:ShadowCalculation,
  {f3f7fbc7-99bc-4991-b072-da5b6227ac14}, !- Handle
  20,                                     !- Calculation Frequency
  200;                                    !- Maximum Figures in Shadow Overlap Calculations

OS:SurfaceConvectionAlgorithm:Outside,
  {6da5578f-c7bf-49c6-b24c-ea82b47fbc5c}, !- Handle
  DOE-2;                                  !- Algorithm

OS:SurfaceConvectionAlgorithm:Inside,
  {b4013d6d-652a-4f3e-bd42-3943fd996987}, !- Handle
  TARP;                                   !- Algorithm

OS:ZoneCapacitanceMultiplier:ResearchSpecial,
  {768d35bd-e545-4eb1-a95c-622fadbaa7b9}, !- Handle
  ,                                       !- Temperature Capacity Multiplier
  15,                                     !- Humidity Capacity Multiplier
  ;                                       !- Carbon Dioxide Capacity Multiplier

OS:RunPeriod,
  {d5f43d03-f868-4aad-a198-7ce12129d9d8}, !- Handle
  Run Period 1,                           !- Name
  1,                                      !- Begin Month
  1,                                      !- Begin Day of Month
  12,                                     !- End Month
  31,                                     !- End Day of Month
  ,                                       !- Use Weather File Holidays and Special Days
  ,                                       !- Use Weather File Daylight Saving Period
  ,                                       !- Apply Weekend Holiday Rule
  ,                                       !- Use Weather File Rain Indicators
  ,                                       !- Use Weather File Snow Indicators
  ;                                       !- Number of Times Runperiod to be Repeated

OS:YearDescription,
  {75b24c1b-e822-43e7-a83a-f1e92d39aa63}, !- Handle
  2007,                                   !- Calendar Year
  ,                                       !- Day of Week for Start Day
  ;                                       !- Is Leap Year

OS:ThermalZone,
  {3ba2f94b-9e58-4873-87fd-47bafc7e85bc}, !- Handle
  living zone,                            !- Name
  ,                                       !- Multiplier
  ,                                       !- Ceiling Height {m}
  ,                                       !- Volume {m3}
  ,                                       !- Floor Area {m2}
  ,                                       !- Zone Inside Convection Algorithm
  ,                                       !- Zone Outside Convection Algorithm
  ,                                       !- Zone Conditioning Equipment List Name
  {a553e2a4-587c-48ab-aa8e-c952ee73d93d}, !- Zone Air Inlet Port List
  {d5bb070c-2998-4d68-b863-e1e98f2a980e}, !- Zone Air Exhaust Port List
  {784c9917-0e6a-4596-8550-1dd6cb805701}, !- Zone Air Node Name
  {e9cb8589-174a-4500-99e2-503bbb9cbbe9}, !- Zone Return Air Port List
  ,                                       !- Primary Daylighting Control Name
  ,                                       !- Fraction of Zone Controlled by Primary Daylighting Control
  ,                                       !- Secondary Daylighting Control Name
  ,                                       !- Fraction of Zone Controlled by Secondary Daylighting Control
  ,                                       !- Illuminance Map Name
  ,                                       !- Group Rendering Name
  ,                                       !- Thermostat Name
  No;                                     !- Use Ideal Air Loads

OS:Node,
  {101de3c9-b51a-4796-b364-b37ca99e12fc}, !- Handle
  Node 1,                                 !- Name
  {784c9917-0e6a-4596-8550-1dd6cb805701}, !- Inlet Port
  ;                                       !- Outlet Port

OS:Connection,
  {784c9917-0e6a-4596-8550-1dd6cb805701}, !- Handle
  {1e282efa-9951-460e-b6d8-a0c1cc465b88}, !- Name
  {3ba2f94b-9e58-4873-87fd-47bafc7e85bc}, !- Source Object
  11,                                     !- Outlet Port
  {101de3c9-b51a-4796-b364-b37ca99e12fc}, !- Target Object
  2;                                      !- Inlet Port

OS:PortList,
  {a553e2a4-587c-48ab-aa8e-c952ee73d93d}, !- Handle
  {09917f4c-796a-45d9-9349-75fc8e581d7c}, !- Name
  {3ba2f94b-9e58-4873-87fd-47bafc7e85bc}; !- HVAC Component

OS:PortList,
  {d5bb070c-2998-4d68-b863-e1e98f2a980e}, !- Handle
  {43d4e6d9-66dd-46e1-9832-44ffa9b46854}, !- Name
  {3ba2f94b-9e58-4873-87fd-47bafc7e85bc}; !- HVAC Component

OS:PortList,
  {e9cb8589-174a-4500-99e2-503bbb9cbbe9}, !- Handle
  {9c415098-46ba-4c68-a940-f15a95fdd81c}, !- Name
  {3ba2f94b-9e58-4873-87fd-47bafc7e85bc}; !- HVAC Component

OS:Sizing:Zone,
  {219b5ac0-8bb5-4726-b542-c0285b8b083a}, !- Handle
  {3ba2f94b-9e58-4873-87fd-47bafc7e85bc}, !- Zone or ZoneList Name
  SupplyAirTemperature,                   !- Zone Cooling Design Supply Air Temperature Input Method
  14,                                     !- Zone Cooling Design Supply Air Temperature {C}
  11.11,                                  !- Zone Cooling Design Supply Air Temperature Difference {deltaC}
  SupplyAirTemperature,                   !- Zone Heating Design Supply Air Temperature Input Method
  40,                                     !- Zone Heating Design Supply Air Temperature {C}
  11.11,                                  !- Zone Heating Design Supply Air Temperature Difference {deltaC}
  0.0085,                                 !- Zone Cooling Design Supply Air Humidity Ratio {kg-H2O/kg-air}
  0.008,                                  !- Zone Heating Design Supply Air Humidity Ratio {kg-H2O/kg-air}
  ,                                       !- Zone Heating Sizing Factor
  ,                                       !- Zone Cooling Sizing Factor
  DesignDay,                              !- Cooling Design Air Flow Method
  ,                                       !- Cooling Design Air Flow Rate {m3/s}
  ,                                       !- Cooling Minimum Air Flow per Zone Floor Area {m3/s-m2}
  ,                                       !- Cooling Minimum Air Flow {m3/s}
  ,                                       !- Cooling Minimum Air Flow Fraction
  DesignDay,                              !- Heating Design Air Flow Method
  ,                                       !- Heating Design Air Flow Rate {m3/s}
  ,                                       !- Heating Maximum Air Flow per Zone Floor Area {m3/s-m2}
  ,                                       !- Heating Maximum Air Flow {m3/s}
  ,                                       !- Heating Maximum Air Flow Fraction
  ,                                       !- Design Zone Air Distribution Effectiveness in Cooling Mode
  ,                                       !- Design Zone Air Distribution Effectiveness in Heating Mode
  No,                                     !- Account for Dedicated Outdoor Air System
  NeutralSupplyAir,                       !- Dedicated Outdoor Air System Control Strategy
  autosize,                               !- Dedicated Outdoor Air Low Setpoint Temperature for Design {C}
  autosize;                               !- Dedicated Outdoor Air High Setpoint Temperature for Design {C}

OS:ZoneHVAC:EquipmentList,
  {78205aa8-e0e7-477f-8c90-ca7572f98af3}, !- Handle
  Zone HVAC Equipment List 1,             !- Name
  {3ba2f94b-9e58-4873-87fd-47bafc7e85bc}; !- Thermal Zone

OS:Space,
  {bcf6f8f5-3ce0-4194-9b39-4a2366e0211b}, !- Handle
  living space,                           !- Name
  {471072c6-d571-4172-b79c-ba6033b21df4}, !- Space Type Name
  ,                                       !- Default Construction Set Name
  ,                                       !- Default Schedule Set Name
  ,                                       !- Direction of Relative North {deg}
  ,                                       !- X Origin {m}
  ,                                       !- Y Origin {m}
  ,                                       !- Z Origin {m}
  ,                                       !- Building Story Name
  {3ba2f94b-9e58-4873-87fd-47bafc7e85bc}, !- Thermal Zone Name
  ,                                       !- Part of Total Floor Area
  ,                                       !- Design Specification Outdoor Air Object Name
  {509de1f1-8e6b-44bd-a295-7b22cc636135}; !- Building Unit Name

OS:Surface,
  {8b7d532e-0c00-41c6-8762-d555efea41be}, !- Handle
  Surface 1,                              !- Name
  Floor,                                  !- Surface Type
  ,                                       !- Construction Name
  {bcf6f8f5-3ce0-4194-9b39-4a2366e0211b}, !- Space Name
  Surface,                                !- Outside Boundary Condition
  {c4fc7968-21d9-4edb-b94b-849d27a9d7c1}, !- Outside Boundary Condition Object
  NoSun,                                  !- Sun Exposure
  NoWind,                                 !- Wind Exposure
  ,                                       !- View Factor to Ground
  ,                                       !- Number of Vertices
  0, -12.9315688143396, 0,                !- X,Y,Z Vertex 1 {m}
  0, 0, 0,                                !- X,Y,Z Vertex 2 {m}
  6.46578440716979, 0, 0,                 !- X,Y,Z Vertex 3 {m}
  6.46578440716979, -12.9315688143396, 0; !- X,Y,Z Vertex 4 {m}

OS:Surface,
  {710f52f1-4609-47cc-a13a-2dffd4f9d36a}, !- Handle
  Surface 2,                              !- Name
  Wall,                                   !- Surface Type
  ,                                       !- Construction Name
  {bcf6f8f5-3ce0-4194-9b39-4a2366e0211b}, !- Space Name
  Outdoors,                               !- Outside Boundary Condition
  ,                                       !- Outside Boundary Condition Object
  SunExposed,                             !- Sun Exposure
  WindExposed,                            !- Wind Exposure
  ,                                       !- View Factor to Ground
  ,                                       !- Number of Vertices
  0, 0, 2.4384,                           !- X,Y,Z Vertex 1 {m}
  0, 0, 0,                                !- X,Y,Z Vertex 2 {m}
  0, -12.9315688143396, 0,                !- X,Y,Z Vertex 3 {m}
  0, -12.9315688143396, 2.4384;           !- X,Y,Z Vertex 4 {m}

OS:Surface,
  {ebeee65d-0e95-4f30-872b-7957cc7d4ec3}, !- Handle
  Surface 3,                              !- Name
  Wall,                                   !- Surface Type
  ,                                       !- Construction Name
  {bcf6f8f5-3ce0-4194-9b39-4a2366e0211b}, !- Space Name
  Adiabatic,                              !- Outside Boundary Condition
  ,                                       !- Outside Boundary Condition Object
  NoSun,                                  !- Sun Exposure
  NoWind,                                 !- Wind Exposure
  ,                                       !- View Factor to Ground
  ,                                       !- Number of Vertices
  6.46578440716979, 0, 2.4384,            !- X,Y,Z Vertex 1 {m}
  6.46578440716979, 0, 0,                 !- X,Y,Z Vertex 2 {m}
  0, 0, 0,                                !- X,Y,Z Vertex 3 {m}
  0, 0, 2.4384;                           !- X,Y,Z Vertex 4 {m}

OS:Surface,
  {9baa1369-c6bc-4bfc-a073-4dda4fd65c4f}, !- Handle
  Surface 4,                              !- Name
  Wall,                                   !- Surface Type
  ,                                       !- Construction Name
  {bcf6f8f5-3ce0-4194-9b39-4a2366e0211b}, !- Space Name
  Surface,                                !- Outside Boundary Condition
  {318a34ba-5faa-4e35-8f3a-c548a342efa7}, !- Outside Boundary Condition Object
  NoSun,                                  !- Sun Exposure
  NoWind,                                 !- Wind Exposure
  ,                                       !- View Factor to Ground
  ,                                       !- Number of Vertices
  6.46578440716979, -12.9315688143396, 2.4384, !- X,Y,Z Vertex 1 {m}
  6.46578440716979, -12.9315688143396, 0, !- X,Y,Z Vertex 2 {m}
  6.46578440716979, 0, 0,                 !- X,Y,Z Vertex 3 {m}
  6.46578440716979, 0, 2.4384;            !- X,Y,Z Vertex 4 {m}

OS:Surface,
  {a94695c3-600d-4b76-9a34-baf08e587f59}, !- Handle
  Surface 5,                              !- Name
  Wall,                                   !- Surface Type
  ,                                       !- Construction Name
  {bcf6f8f5-3ce0-4194-9b39-4a2366e0211b}, !- Space Name
  Outdoors,                               !- Outside Boundary Condition
  ,                                       !- Outside Boundary Condition Object
  SunExposed,                             !- Sun Exposure
  WindExposed,                            !- Wind Exposure
  ,                                       !- View Factor to Ground
  ,                                       !- Number of Vertices
  0, -12.9315688143396, 2.4384,           !- X,Y,Z Vertex 1 {m}
  0, -12.9315688143396, 0,                !- X,Y,Z Vertex 2 {m}
  6.46578440716979, -12.9315688143396, 0, !- X,Y,Z Vertex 3 {m}
  6.46578440716979, -12.9315688143396, 2.4384; !- X,Y,Z Vertex 4 {m}

OS:Surface,
  {90ce40a2-9a86-428d-b1b9-f42f78db52ee}, !- Handle
  Surface 6,                              !- Name
  RoofCeiling,                            !- Surface Type
  ,                                       !- Construction Name
  {bcf6f8f5-3ce0-4194-9b39-4a2366e0211b}, !- Space Name
  Surface,                                !- Outside Boundary Condition
  {c36004a0-0034-4ad6-a128-cd5f3458d9b6}, !- Outside Boundary Condition Object
  NoSun,                                  !- Sun Exposure
  NoWind,                                 !- Wind Exposure
  ,                                       !- View Factor to Ground
  ,                                       !- Number of Vertices
  6.46578440716979, -12.9315688143396, 2.4384, !- X,Y,Z Vertex 1 {m}
  6.46578440716979, 0, 2.4384,            !- X,Y,Z Vertex 2 {m}
  0, 0, 2.4384,                           !- X,Y,Z Vertex 3 {m}
  0, -12.9315688143396, 2.4384;           !- X,Y,Z Vertex 4 {m}

OS:SpaceType,
  {471072c6-d571-4172-b79c-ba6033b21df4}, !- Handle
  Space Type 1,                           !- Name
  ,                                       !- Default Construction Set Name
  ,                                       !- Default Schedule Set Name
  ,                                       !- Group Rendering Name
  ,                                       !- Design Specification Outdoor Air Object Name
  ,                                       !- Standards Template
  ,                                       !- Standards Building Type
  living;                                 !- Standards Space Type

OS:ThermalZone,
  {21b9d572-780a-45f8-86fd-558af0bc830c}, !- Handle
  living zone|unit 2,                     !- Name
  ,                                       !- Multiplier
  ,                                       !- Ceiling Height {m}
  ,                                       !- Volume {m3}
  ,                                       !- Floor Area {m2}
  ,                                       !- Zone Inside Convection Algorithm
  ,                                       !- Zone Outside Convection Algorithm
  ,                                       !- Zone Conditioning Equipment List Name
  {db290f80-b563-4d02-9ad3-ab6ff35088a6}, !- Zone Air Inlet Port List
  {1c4b3e83-df66-46dc-8329-2ce3f84045f8}, !- Zone Air Exhaust Port List
  {66450784-3826-471c-a2f6-929e27f2c3f4}, !- Zone Air Node Name
  {743b461c-8e0e-44ac-8510-6d80649ef620}, !- Zone Return Air Port List
  ,                                       !- Primary Daylighting Control Name
  ,                                       !- Fraction of Zone Controlled by Primary Daylighting Control
  ,                                       !- Secondary Daylighting Control Name
  ,                                       !- Fraction of Zone Controlled by Secondary Daylighting Control
  ,                                       !- Illuminance Map Name
  ,                                       !- Group Rendering Name
  ,                                       !- Thermostat Name
  No;                                     !- Use Ideal Air Loads

OS:Node,
  {0969cb01-141a-4f83-ad91-e4f52ecb77ee}, !- Handle
  Node 2,                                 !- Name
  {66450784-3826-471c-a2f6-929e27f2c3f4}, !- Inlet Port
  ;                                       !- Outlet Port

OS:Connection,
  {66450784-3826-471c-a2f6-929e27f2c3f4}, !- Handle
  {6716dd2a-6af4-4dec-97f9-7264f870a6de}, !- Name
  {21b9d572-780a-45f8-86fd-558af0bc830c}, !- Source Object
  11,                                     !- Outlet Port
  {0969cb01-141a-4f83-ad91-e4f52ecb77ee}, !- Target Object
  2;                                      !- Inlet Port

OS:PortList,
  {db290f80-b563-4d02-9ad3-ab6ff35088a6}, !- Handle
  {b0923f0a-b403-422a-9c70-c9a7572fa7bb}, !- Name
  {21b9d572-780a-45f8-86fd-558af0bc830c}; !- HVAC Component

OS:PortList,
  {1c4b3e83-df66-46dc-8329-2ce3f84045f8}, !- Handle
  {e5532e29-8974-44d8-bf38-86b6ecce5b14}, !- Name
  {21b9d572-780a-45f8-86fd-558af0bc830c}; !- HVAC Component

OS:PortList,
  {743b461c-8e0e-44ac-8510-6d80649ef620}, !- Handle
  {eed27700-ebf3-41b3-ba72-f4cbd9acffed}, !- Name
  {21b9d572-780a-45f8-86fd-558af0bc830c}; !- HVAC Component

OS:Sizing:Zone,
  {f4c6ebf7-4005-423c-ad7e-d016e5dd1603}, !- Handle
  {21b9d572-780a-45f8-86fd-558af0bc830c}, !- Zone or ZoneList Name
  SupplyAirTemperature,                   !- Zone Cooling Design Supply Air Temperature Input Method
  14,                                     !- Zone Cooling Design Supply Air Temperature {C}
  11.11,                                  !- Zone Cooling Design Supply Air Temperature Difference {deltaC}
  SupplyAirTemperature,                   !- Zone Heating Design Supply Air Temperature Input Method
  40,                                     !- Zone Heating Design Supply Air Temperature {C}
  11.11,                                  !- Zone Heating Design Supply Air Temperature Difference {deltaC}
  0.0085,                                 !- Zone Cooling Design Supply Air Humidity Ratio {kg-H2O/kg-air}
  0.008,                                  !- Zone Heating Design Supply Air Humidity Ratio {kg-H2O/kg-air}
  ,                                       !- Zone Heating Sizing Factor
  ,                                       !- Zone Cooling Sizing Factor
  DesignDay,                              !- Cooling Design Air Flow Method
  ,                                       !- Cooling Design Air Flow Rate {m3/s}
  ,                                       !- Cooling Minimum Air Flow per Zone Floor Area {m3/s-m2}
  ,                                       !- Cooling Minimum Air Flow {m3/s}
  ,                                       !- Cooling Minimum Air Flow Fraction
  DesignDay,                              !- Heating Design Air Flow Method
  ,                                       !- Heating Design Air Flow Rate {m3/s}
  ,                                       !- Heating Maximum Air Flow per Zone Floor Area {m3/s-m2}
  ,                                       !- Heating Maximum Air Flow {m3/s}
  ,                                       !- Heating Maximum Air Flow Fraction
  ,                                       !- Design Zone Air Distribution Effectiveness in Cooling Mode
  ,                                       !- Design Zone Air Distribution Effectiveness in Heating Mode
  No,                                     !- Account for Dedicated Outdoor Air System
  NeutralSupplyAir,                       !- Dedicated Outdoor Air System Control Strategy
  autosize,                               !- Dedicated Outdoor Air Low Setpoint Temperature for Design {C}
  autosize;                               !- Dedicated Outdoor Air High Setpoint Temperature for Design {C}

OS:ZoneHVAC:EquipmentList,
  {19c1df3e-97f5-4683-9192-cb122f48222b}, !- Handle
  Zone HVAC Equipment List 2,             !- Name
  {21b9d572-780a-45f8-86fd-558af0bc830c}; !- Thermal Zone

OS:Space,
  {065f24a2-b1ad-4dfd-b6bc-18f86b7ca71d}, !- Handle
  living space|unit 2,                    !- Name
  {471072c6-d571-4172-b79c-ba6033b21df4}, !- Space Type Name
  ,                                       !- Default Construction Set Name
  ,                                       !- Default Schedule Set Name
  ,                                       !- Direction of Relative North {deg}
  ,                                       !- X Origin {m}
  ,                                       !- Y Origin {m}
  ,                                       !- Z Origin {m}
  ,                                       !- Building Story Name
  {21b9d572-780a-45f8-86fd-558af0bc830c}, !- Thermal Zone Name
  ,                                       !- Part of Total Floor Area
  ,                                       !- Design Specification Outdoor Air Object Name
  {a14e967f-2f1a-43b8-93b0-aea3bafc2f77}; !- Building Unit Name

OS:Surface,
  {d1625373-d6d6-485d-a6aa-da525bd90a07}, !- Handle
  Surface 7,                              !- Name
  Floor,                                  !- Surface Type
  ,                                       !- Construction Name
  {065f24a2-b1ad-4dfd-b6bc-18f86b7ca71d}, !- Space Name
  Surface,                                !- Outside Boundary Condition
  {d3e9bb4b-57c5-4ff7-b5c1-35a7816331ff}, !- Outside Boundary Condition Object
  NoSun,                                  !- Sun Exposure
  NoWind,                                 !- Wind Exposure
  ,                                       !- View Factor to Ground
  ,                                       !- Number of Vertices
  0, 3.048, 0,                            !- X,Y,Z Vertex 1 {m}
  0, 15.9795688143396, 0,                 !- X,Y,Z Vertex 2 {m}
  6.46578440716979, 15.9795688143396, 0,  !- X,Y,Z Vertex 3 {m}
  6.46578440716979, 3.048, 0;             !- X,Y,Z Vertex 4 {m}

OS:Surface,
  {3a7728c7-550c-4281-9649-36a80484cb5d}, !- Handle
  Surface 8,                              !- Name
  Wall,                                   !- Surface Type
  ,                                       !- Construction Name
  {065f24a2-b1ad-4dfd-b6bc-18f86b7ca71d}, !- Space Name
  Outdoors,                               !- Outside Boundary Condition
  ,                                       !- Outside Boundary Condition Object
  SunExposed,                             !- Sun Exposure
  WindExposed,                            !- Wind Exposure
  ,                                       !- View Factor to Ground
  ,                                       !- Number of Vertices
  0, 15.9795688143396, 2.4384,            !- X,Y,Z Vertex 1 {m}
  0, 15.9795688143396, 0,                 !- X,Y,Z Vertex 2 {m}
  0, 3.048, 0,                            !- X,Y,Z Vertex 3 {m}
  0, 3.048, 2.4384;                       !- X,Y,Z Vertex 4 {m}

OS:Surface,
  {e4e238f5-6811-470f-91a9-4378d6b62fb2}, !- Handle
  Surface 9,                              !- Name
  Wall,                                   !- Surface Type
  ,                                       !- Construction Name
  {065f24a2-b1ad-4dfd-b6bc-18f86b7ca71d}, !- Space Name
  Outdoors,                               !- Outside Boundary Condition
  ,                                       !- Outside Boundary Condition Object
  SunExposed,                             !- Sun Exposure
  WindExposed,                            !- Wind Exposure
  ,                                       !- View Factor to Ground
  ,                                       !- Number of Vertices
  6.46578440716979, 15.9795688143396, 2.4384, !- X,Y,Z Vertex 1 {m}
  6.46578440716979, 15.9795688143396, 0,  !- X,Y,Z Vertex 2 {m}
  0, 15.9795688143396, 0,                 !- X,Y,Z Vertex 3 {m}
  0, 15.9795688143396, 2.4384;            !- X,Y,Z Vertex 4 {m}

OS:Surface,
  {d236d4bb-7856-4685-a76b-d1cd0f3fc8db}, !- Handle
  Surface 10,                             !- Name
  Wall,                                   !- Surface Type
  ,                                       !- Construction Name
  {065f24a2-b1ad-4dfd-b6bc-18f86b7ca71d}, !- Space Name
  Surface,                                !- Outside Boundary Condition
  {99de3a05-b695-43f1-bf32-07563c1ebbd4}, !- Outside Boundary Condition Object
  NoSun,                                  !- Sun Exposure
  NoWind,                                 !- Wind Exposure
  ,                                       !- View Factor to Ground
  ,                                       !- Number of Vertices
  6.46578440716979, 3.048, 2.4384,        !- X,Y,Z Vertex 1 {m}
  6.46578440716979, 3.048, 0,             !- X,Y,Z Vertex 2 {m}
  6.46578440716979, 15.9795688143396, 0,  !- X,Y,Z Vertex 3 {m}
  6.46578440716979, 15.9795688143396, 2.4384; !- X,Y,Z Vertex 4 {m}

OS:Surface,
  {acc95c2f-6fa6-4393-8d01-8fb04ceb9712}, !- Handle
  Surface 11,                             !- Name
  Wall,                                   !- Surface Type
  ,                                       !- Construction Name
  {065f24a2-b1ad-4dfd-b6bc-18f86b7ca71d}, !- Space Name
  Adiabatic,                              !- Outside Boundary Condition
  ,                                       !- Outside Boundary Condition Object
  NoSun,                                  !- Sun Exposure
  NoWind,                                 !- Wind Exposure
  ,                                       !- View Factor to Ground
  ,                                       !- Number of Vertices
  0, 3.048, 2.4384,                       !- X,Y,Z Vertex 1 {m}
  0, 3.048, 0,                            !- X,Y,Z Vertex 2 {m}
  6.46578440716979, 3.048, 0,             !- X,Y,Z Vertex 3 {m}
  6.46578440716979, 3.048, 2.4384;        !- X,Y,Z Vertex 4 {m}

OS:Surface,
  {a286dda2-51bb-40e3-a13e-607a1a14278a}, !- Handle
  Surface 12,                             !- Name
  RoofCeiling,                            !- Surface Type
  ,                                       !- Construction Name
  {065f24a2-b1ad-4dfd-b6bc-18f86b7ca71d}, !- Space Name
  Surface,                                !- Outside Boundary Condition
  {50543ede-e26f-4973-a54d-404288a376e7}, !- Outside Boundary Condition Object
  NoSun,                                  !- Sun Exposure
  NoWind,                                 !- Wind Exposure
  ,                                       !- View Factor to Ground
  ,                                       !- Number of Vertices
  6.46578440716979, 3.048, 2.4384,        !- X,Y,Z Vertex 1 {m}
  6.46578440716979, 15.9795688143396, 2.4384, !- X,Y,Z Vertex 2 {m}
  0, 15.9795688143396, 2.4384,            !- X,Y,Z Vertex 3 {m}
  0, 3.048, 2.4384;                       !- X,Y,Z Vertex 4 {m}

OS:ThermalZone,
  {4162b1d0-fe0c-4e55-b626-69c39617c775}, !- Handle
  living zone|unit 3,                     !- Name
  ,                                       !- Multiplier
  ,                                       !- Ceiling Height {m}
  ,                                       !- Volume {m3}
  ,                                       !- Floor Area {m2}
  ,                                       !- Zone Inside Convection Algorithm
  ,                                       !- Zone Outside Convection Algorithm
  ,                                       !- Zone Conditioning Equipment List Name
  {0117a674-2f52-44e0-a691-af52bab16de8}, !- Zone Air Inlet Port List
  {7d514fd4-208b-4feb-aa3d-b7292bb9941b}, !- Zone Air Exhaust Port List
  {01801e7c-d376-46a0-b2de-5a6073225087}, !- Zone Air Node Name
  {ff4760dd-81d5-4d6d-9cb9-59cc16edffac}, !- Zone Return Air Port List
  ,                                       !- Primary Daylighting Control Name
  ,                                       !- Fraction of Zone Controlled by Primary Daylighting Control
  ,                                       !- Secondary Daylighting Control Name
  ,                                       !- Fraction of Zone Controlled by Secondary Daylighting Control
  ,                                       !- Illuminance Map Name
  ,                                       !- Group Rendering Name
  ,                                       !- Thermostat Name
  No;                                     !- Use Ideal Air Loads

OS:Node,
  {732e8a15-ac71-435a-a38e-0fe88eb80bfb}, !- Handle
  Node 3,                                 !- Name
  {01801e7c-d376-46a0-b2de-5a6073225087}, !- Inlet Port
  ;                                       !- Outlet Port

OS:Connection,
  {01801e7c-d376-46a0-b2de-5a6073225087}, !- Handle
  {962731ff-35b7-4bfc-832c-f4f783aaa8b8}, !- Name
  {4162b1d0-fe0c-4e55-b626-69c39617c775}, !- Source Object
  11,                                     !- Outlet Port
  {732e8a15-ac71-435a-a38e-0fe88eb80bfb}, !- Target Object
  2;                                      !- Inlet Port

OS:PortList,
  {0117a674-2f52-44e0-a691-af52bab16de8}, !- Handle
  {5a830016-582d-4941-8680-8549beb53312}, !- Name
  {4162b1d0-fe0c-4e55-b626-69c39617c775}; !- HVAC Component

OS:PortList,
  {7d514fd4-208b-4feb-aa3d-b7292bb9941b}, !- Handle
  {5e8d65d8-b3b3-434a-a663-396b219d0f3e}, !- Name
  {4162b1d0-fe0c-4e55-b626-69c39617c775}; !- HVAC Component

OS:PortList,
  {ff4760dd-81d5-4d6d-9cb9-59cc16edffac}, !- Handle
  {d2a41196-a8ed-42a7-a3a0-9d60eaa7ce63}, !- Name
  {4162b1d0-fe0c-4e55-b626-69c39617c775}; !- HVAC Component

OS:Sizing:Zone,
  {a6d8560c-0bd8-4a82-87f0-bb6c63b4ef6f}, !- Handle
  {4162b1d0-fe0c-4e55-b626-69c39617c775}, !- Zone or ZoneList Name