!- NOTE: Auto-generated from /test/osw_files/MF_8units_1story_SL_3Beds_2Baths_Denver_Furnace_NoSetpoints.osw

OS:Version,
  {e061769d-c6a7-43c7-8db6-25968a0b3bac}, !- Handle
  2.8.0;                                  !- Version Identifier

OS:SimulationControl,
  {bbf99a7f-b3ed-4353-93a6-073090a38fb2}, !- Handle
  ,                                       !- Do Zone Sizing Calculation
  ,                                       !- Do System Sizing Calculation
  ,                                       !- Do Plant Sizing Calculation
  No;                                     !- Run Simulation for Sizing Periods

OS:Timestep,
  {243eb4c5-cd47-443b-a32b-84dfb8384f9c}, !- Handle
  6;                                      !- Number of Timesteps per Hour

OS:ShadowCalculation,
  {a8391684-c3d1-443a-872d-db611ee96b56}, !- Handle
  20,                                     !- Calculation Frequency
  200;                                    !- Maximum Figures in Shadow Overlap Calculations

OS:SurfaceConvectionAlgorithm:Outside,
  {35ff929c-c16c-4b28-8e3e-303d2f005929}, !- Handle
  DOE-2;                                  !- Algorithm

OS:SurfaceConvectionAlgorithm:Inside,
  {5c166c63-85a9-4101-8568-a85ffd7739f4}, !- Handle
  TARP;                                   !- Algorithm

OS:ZoneCapacitanceMultiplier:ResearchSpecial,
  {71afdf26-6c19-46c3-9d53-e955b0853afa}, !- Handle
  ,                                       !- Temperature Capacity Multiplier
  15,                                     !- Humidity Capacity Multiplier
  ;                                       !- Carbon Dioxide Capacity Multiplier

OS:RunPeriod,
  {f541fec3-6b42-4124-a502-2a85d8747b6a}, !- Handle
  Run Period 1,                           !- Name
  1,                                      !- Begin Month
  1,                                      !- Begin Day of Month
  12,                                     !- End Month
  31,                                     !- End Day of Month
  ,                                       !- Use Weather File Holidays and Special Days
  ,                                       !- Use Weather File Daylight Saving Period
  ,                                       !- Apply Weekend Holiday Rule
  ,                                       !- Use Weather File Rain Indicators
  ,                                       !- Use Weather File Snow Indicators
  ;                                       !- Number of Times Runperiod to be Repeated

OS:ThermalZone,
  {4e5cab4a-8c35-4b95-833e-c88069ad08fb}, !- Handle
  living zone,                            !- Name
  ,                                       !- Multiplier
  ,                                       !- Ceiling Height {m}
  ,                                       !- Volume {m3}
  ,                                       !- Floor Area {m2}
  ,                                       !- Zone Inside Convection Algorithm
  ,                                       !- Zone Outside Convection Algorithm
  ,                                       !- Zone Conditioning Equipment List Name
  {eab5d789-f3bc-487a-b37f-7b78077c7ff3}, !- Zone Air Inlet Port List
  {9854f611-6a8e-4b24-a19d-2d1a8ecad04b}, !- Zone Air Exhaust Port List
  {96594881-d473-4219-9165-2b876fbfde43}, !- Zone Air Node Name
  {ed42fa3c-d7c2-4b83-9965-76010a3e9bde}, !- Zone Return Air Port List
  ,                                       !- Primary Daylighting Control Name
  ,                                       !- Fraction of Zone Controlled by Primary Daylighting Control
  ,                                       !- Secondary Daylighting Control Name
  ,                                       !- Fraction of Zone Controlled by Secondary Daylighting Control
  ,                                       !- Illuminance Map Name
  ,                                       !- Group Rendering Name
  ,                                       !- Thermostat Name
  No;                                     !- Use Ideal Air Loads

OS:Node,
  {cfbf570c-ea10-4fb4-b82c-da7a9551067b}, !- Handle
  Node 1,                                 !- Name
  {96594881-d473-4219-9165-2b876fbfde43}, !- Inlet Port
  ;                                       !- Outlet Port

OS:Connection,
  {96594881-d473-4219-9165-2b876fbfde43}, !- Handle
  {d78460b3-5e18-4cb7-8249-9f2ee5fc977e}, !- Name
  {4e5cab4a-8c35-4b95-833e-c88069ad08fb}, !- Source Object
  11,                                     !- Outlet Port
  {cfbf570c-ea10-4fb4-b82c-da7a9551067b}, !- Target Object
  2;                                      !- Inlet Port

OS:PortList,
  {eab5d789-f3bc-487a-b37f-7b78077c7ff3}, !- Handle
  {47ab447d-0734-4cbe-ab01-8e10a384d7ab}, !- Name
  {4e5cab4a-8c35-4b95-833e-c88069ad08fb}, !- HVAC Component
  {ba942e6f-947b-48f8-a62f-ec55be0dbaf2}; !- Port 1

OS:PortList,
  {9854f611-6a8e-4b24-a19d-2d1a8ecad04b}, !- Handle
  {e7f9d92a-e499-4d9a-93d6-46fc677daf28}, !- Name
  {4e5cab4a-8c35-4b95-833e-c88069ad08fb}; !- HVAC Component

OS:PortList,
  {ed42fa3c-d7c2-4b83-9965-76010a3e9bde}, !- Handle
  {f6d01489-b695-42af-a845-f45b4ea72b3f}, !- Name
  {4e5cab4a-8c35-4b95-833e-c88069ad08fb}, !- HVAC Component
  {425d1c83-acf0-46ef-9e00-218b723079a7}; !- Port 1

OS:Sizing:Zone,
  {0abe881c-3c08-4204-bdfd-675fc2ec46a7}, !- Handle
  {4e5cab4a-8c35-4b95-833e-c88069ad08fb}, !- Zone or ZoneList Name
  SupplyAirTemperature,                   !- Zone Cooling Design Supply Air Temperature Input Method
  14,                                     !- Zone Cooling Design Supply Air Temperature {C}
  11.11,                                  !- Zone Cooling Design Supply Air Temperature Difference {deltaC}
  SupplyAirTemperature,                   !- Zone Heating Design Supply Air Temperature Input Method
  40,                                     !- Zone Heating Design Supply Air Temperature {C}
  11.11,                                  !- Zone Heating Design Supply Air Temperature Difference {deltaC}
  0.0085,                                 !- Zone Cooling Design Supply Air Humidity Ratio {kg-H2O/kg-air}
  0.008,                                  !- Zone Heating Design Supply Air Humidity Ratio {kg-H2O/kg-air}
  ,                                       !- Zone Heating Sizing Factor
  ,                                       !- Zone Cooling Sizing Factor
  DesignDay,                              !- Cooling Design Air Flow Method
  ,                                       !- Cooling Design Air Flow Rate {m3/s}
  ,                                       !- Cooling Minimum Air Flow per Zone Floor Area {m3/s-m2}
  ,                                       !- Cooling Minimum Air Flow {m3/s}
  ,                                       !- Cooling Minimum Air Flow Fraction
  DesignDay,                              !- Heating Design Air Flow Method
  ,                                       !- Heating Design Air Flow Rate {m3/s}
  ,                                       !- Heating Maximum Air Flow per Zone Floor Area {m3/s-m2}
  ,                                       !- Heating Maximum Air Flow {m3/s}
  ,                                       !- Heating Maximum Air Flow Fraction
  ,                                       !- Design Zone Air Distribution Effectiveness in Cooling Mode
  ,                                       !- Design Zone Air Distribution Effectiveness in Heating Mode
  No,                                     !- Account for Dedicated Outdoor Air System
  NeutralSupplyAir,                       !- Dedicated Outdoor Air System Control Strategy
  autosize,                               !- Dedicated Outdoor Air Low Setpoint Temperature for Design {C}
  autosize;                               !- Dedicated Outdoor Air High Setpoint Temperature for Design {C}

OS:ZoneHVAC:EquipmentList,
  {99d9bfa3-a198-4c18-ab8c-5338b6af6666}, !- Handle
  Zone HVAC Equipment List 1,             !- Name
  {4e5cab4a-8c35-4b95-833e-c88069ad08fb}, !- Thermal Zone
  SequentialLoad,                         !- Load Distribution Scheme
  {1124e390-e40e-47f3-b569-894d0f80f60c}, !- Zone Equipment 1
  1,                                      !- Zone Equipment Cooling Sequence 1
  1,                                      !- Zone Equipment Heating or No-Load Sequence 1
  ,                                       !- Zone Equipment Sequential Cooling Fraction 1
  ;                                       !- Zone Equipment Sequential Heating Fraction 1

OS:Space,
  {f879174d-f7a1-4eb8-9cfe-6b187808f121}, !- Handle
  living space,                           !- Name
  {71d6a47e-1235-43d4-9236-1db5a4434f9b}, !- Space Type Name
  ,                                       !- Default Construction Set Name
  ,                                       !- Default Schedule Set Name
  ,                                       !- Direction of Relative North {deg}
  ,                                       !- X Origin {m}
  ,                                       !- Y Origin {m}
  ,                                       !- Z Origin {m}
  ,                                       !- Building Story Name
  {4e5cab4a-8c35-4b95-833e-c88069ad08fb}, !- Thermal Zone Name
  ,                                       !- Part of Total Floor Area
  ,                                       !- Design Specification Outdoor Air Object Name
  {810354fc-ca31-41f9-a96e-b1c3f2e93093}; !- Building Unit Name

OS:Surface,
  {549ae775-2c16-4544-91c6-1d8ae9e9b237}, !- Handle
  Surface 1,                              !- Name
  Floor,                                  !- Surface Type
  ,                                       !- Construction Name
  {f879174d-f7a1-4eb8-9cfe-6b187808f121}, !- Space Name
  Foundation,                             !- Outside Boundary Condition
  ,                                       !- Outside Boundary Condition Object
  NoSun,                                  !- Sun Exposure
  NoWind,                                 !- Wind Exposure
  ,                                       !- View Factor to Ground
  ,                                       !- Number of Vertices
  0, -12.9315688143396, 0,                !- X,Y,Z Vertex 1 {m}
  0, 0, 0,                                !- X,Y,Z Vertex 2 {m}
  6.46578440716979, 0, 0,                 !- X,Y,Z Vertex 3 {m}
  6.46578440716979, -12.9315688143396, 0; !- X,Y,Z Vertex 4 {m}

OS:Surface,
  {2b6476ce-92c6-45e4-b458-8c265bfc45b4}, !- Handle
  Surface 2,                              !- Name
  Wall,                                   !- Surface Type
  ,                                       !- Construction Name
  {f879174d-f7a1-4eb8-9cfe-6b187808f121}, !- Space Name
  Outdoors,                               !- Outside Boundary Condition
  ,                                       !- Outside Boundary Condition Object
  SunExposed,                             !- Sun Exposure
  WindExposed,                            !- Wind Exposure
  ,                                       !- View Factor to Ground
  ,                                       !- Number of Vertices
  0, 0, 2.4384,                           !- X,Y,Z Vertex 1 {m}
  0, 0, 0,                                !- X,Y,Z Vertex 2 {m}
  0, -12.9315688143396, 0,                !- X,Y,Z Vertex 3 {m}
  0, -12.9315688143396, 2.4384;           !- X,Y,Z Vertex 4 {m}

OS:Surface,
  {8e595ff9-1300-48c6-94b8-8a99e4d0a039}, !- Handle
  Surface 3,                              !- Name
  Wall,                                   !- Surface Type
  ,                                       !- Construction Name
  {f879174d-f7a1-4eb8-9cfe-6b187808f121}, !- Space Name
  Adiabatic,                              !- Outside Boundary Condition
  ,                                       !- Outside Boundary Condition Object
  NoSun,                                  !- Sun Exposure
  NoWind,                                 !- Wind Exposure
  ,                                       !- View Factor to Ground
  ,                                       !- Number of Vertices
  6.46578440716979, 0, 2.4384,            !- X,Y,Z Vertex 1 {m}
  6.46578440716979, 0, 0,                 !- X,Y,Z Vertex 2 {m}
  0, 0, 0,                                !- X,Y,Z Vertex 3 {m}
  0, 0, 2.4384;                           !- X,Y,Z Vertex 4 {m}

OS:Surface,
  {059ab79e-91d8-4e7c-beeb-3980b1de18d7}, !- Handle
  Surface 4,                              !- Name
  Wall,                                   !- Surface Type
  ,                                       !- Construction Name
  {f879174d-f7a1-4eb8-9cfe-6b187808f121}, !- Space Name
  Surface,                                !- Outside Boundary Condition
  {92ab2343-1275-4a15-a24d-0f0df87302a3}, !- Outside Boundary Condition Object
  NoSun,                                  !- Sun Exposure
  NoWind,                                 !- Wind Exposure
  ,                                       !- View Factor to Ground
  ,                                       !- Number of Vertices
  6.46578440716979, -12.9315688143396, 2.4384, !- X,Y,Z Vertex 1 {m}
  6.46578440716979, -12.9315688143396, 0, !- X,Y,Z Vertex 2 {m}
  6.46578440716979, 0, 0,                 !- X,Y,Z Vertex 3 {m}
  6.46578440716979, 0, 2.4384;            !- X,Y,Z Vertex 4 {m}

OS:Surface,
  {c9d01f18-5df9-4243-9705-7a67efa02fd3}, !- Handle
  Surface 5,                              !- Name
  Wall,                                   !- Surface Type
  ,                                       !- Construction Name
  {f879174d-f7a1-4eb8-9cfe-6b187808f121}, !- Space Name
  Outdoors,                               !- Outside Boundary Condition
  ,                                       !- Outside Boundary Condition Object
  SunExposed,                             !- Sun Exposure
  WindExposed,                            !- Wind Exposure
  ,                                       !- View Factor to Ground
  ,                                       !- Number of Vertices
  0, -12.9315688143396, 2.4384,           !- X,Y,Z Vertex 1 {m}
  0, -12.9315688143396, 0,                !- X,Y,Z Vertex 2 {m}
  6.46578440716979, -12.9315688143396, 0, !- X,Y,Z Vertex 3 {m}
  6.46578440716979, -12.9315688143396, 2.4384; !- X,Y,Z Vertex 4 {m}

OS:Surface,
  {89824fb3-432e-4666-9c77-405d3dfff228}, !- Handle
  Surface 6,                              !- Name
  RoofCeiling,                            !- Surface Type
  ,                                       !- Construction Name
  {f879174d-f7a1-4eb8-9cfe-6b187808f121}, !- Space Name
  Outdoors,                               !- Outside Boundary Condition
  ,                                       !- Outside Boundary Condition Object
  SunExposed,                             !- Sun Exposure
  WindExposed,                            !- Wind Exposure
  ,                                       !- View Factor to Ground
  ,                                       !- Number of Vertices
  6.46578440716979, -12.9315688143396, 2.4384, !- X,Y,Z Vertex 1 {m}
  6.46578440716979, 0, 2.4384,            !- X,Y,Z Vertex 2 {m}
  0, 0, 2.4384,                           !- X,Y,Z Vertex 3 {m}
  0, -12.9315688143396, 2.4384;           !- X,Y,Z Vertex 4 {m}

OS:SpaceType,
  {71d6a47e-1235-43d4-9236-1db5a4434f9b}, !- Handle
  Space Type 1,                           !- Name
  ,                                       !- Default Construction Set Name
  ,                                       !- Default Schedule Set Name
  ,                                       !- Group Rendering Name
  ,                                       !- Design Specification Outdoor Air Object Name
  ,                                       !- Standards Template
  ,                                       !- Standards Building Type
  living;                                 !- Standards Space Type

OS:ThermalZone,
  {057bb127-e1ef-4117-86f5-d80e72059dc8}, !- Handle
  living zone|unit 2,                     !- Name
  ,                                       !- Multiplier
  ,                                       !- Ceiling Height {m}
  ,                                       !- Volume {m3}
  ,                                       !- Floor Area {m2}
  ,                                       !- Zone Inside Convection Algorithm
  ,                                       !- Zone Outside Convection Algorithm
  ,                                       !- Zone Conditioning Equipment List Name
  {ee482e56-61eb-4bfb-bd41-7f3965af6124}, !- Zone Air Inlet Port List
  {6b173159-7b9b-4774-b738-3d2c92cedf4a}, !- Zone Air Exhaust Port List
  {aaba32ae-0b74-4c62-a427-227a41cdc4ab}, !- Zone Air Node Name
  {acd2f737-c7ff-408f-815e-206474b18b05}, !- Zone Return Air Port List
  ,                                       !- Primary Daylighting Control Name
  ,                                       !- Fraction of Zone Controlled by Primary Daylighting Control
  ,                                       !- Secondary Daylighting Control Name
  ,                                       !- Fraction of Zone Controlled by Secondary Daylighting Control
  ,                                       !- Illuminance Map Name
  ,                                       !- Group Rendering Name
  ,                                       !- Thermostat Name
  No;                                     !- Use Ideal Air Loads

OS:Node,
  {c2c87185-5068-4e36-808b-a032f0960d7d}, !- Handle
  Node 2,                                 !- Name
  {aaba32ae-0b74-4c62-a427-227a41cdc4ab}, !- Inlet Port
  ;                                       !- Outlet Port

OS:Connection,
  {aaba32ae-0b74-4c62-a427-227a41cdc4ab}, !- Handle
  {258e215e-f2e9-49d7-9502-e9b44e9d09fc}, !- Name
  {057bb127-e1ef-4117-86f5-d80e72059dc8}, !- Source Object
  11,                                     !- Outlet Port
  {c2c87185-5068-4e36-808b-a032f0960d7d}, !- Target Object
  2;                                      !- Inlet Port

OS:PortList,
  {ee482e56-61eb-4bfb-bd41-7f3965af6124}, !- Handle
  {4f5515db-0675-4948-8a05-1f1ddc972494}, !- Name
  {057bb127-e1ef-4117-86f5-d80e72059dc8}, !- HVAC Component
  {3b8d8fa0-9c0b-4c13-884b-d21f38438fa4}; !- Port 1

OS:PortList,
  {6b173159-7b9b-4774-b738-3d2c92cedf4a}, !- Handle
  {74da3a82-a660-4d80-8ac5-9bdf65762658}, !- Name
  {057bb127-e1ef-4117-86f5-d80e72059dc8}; !- HVAC Component

OS:PortList,
  {acd2f737-c7ff-408f-815e-206474b18b05}, !- Handle
  {4e892d1e-e951-452b-af8e-d077ccfef084}, !- Name
  {057bb127-e1ef-4117-86f5-d80e72059dc8}, !- HVAC Component
  {fe44a6fb-ccf8-4a7f-be00-8f7e838cb9be}; !- Port 1

OS:Sizing:Zone,
  {35d4248f-ded8-4c55-a077-6175f258affb}, !- Handle
  {057bb127-e1ef-4117-86f5-d80e72059dc8}, !- Zone or ZoneList Name
  SupplyAirTemperature,                   !- Zone Cooling Design Supply Air Temperature Input Method
  14,                                     !- Zone Cooling Design Supply Air Temperature {C}
  11.11,                                  !- Zone Cooling Design Supply Air Temperature Difference {deltaC}
  SupplyAirTemperature,                   !- Zone Heating Design Supply Air Temperature Input Method
  40,                                     !- Zone Heating Design Supply Air Temperature {C}
  11.11,                                  !- Zone Heating Design Supply Air Temperature Difference {deltaC}
  0.0085,                                 !- Zone Cooling Design Supply Air Humidity Ratio {kg-H2O/kg-air}
  0.008,                                  !- Zone Heating Design Supply Air Humidity Ratio {kg-H2O/kg-air}
  ,                                       !- Zone Heating Sizing Factor
  ,                                       !- Zone Cooling Sizing Factor
  DesignDay,                              !- Cooling Design Air Flow Method
  ,                                       !- Cooling Design Air Flow Rate {m3/s}
  ,                                       !- Cooling Minimum Air Flow per Zone Floor Area {m3/s-m2}
  ,                                       !- Cooling Minimum Air Flow {m3/s}
  ,                                       !- Cooling Minimum Air Flow Fraction
  DesignDay,                              !- Heating Design Air Flow Method
  ,                                       !- Heating Design Air Flow Rate {m3/s}
  ,                                       !- Heating Maximum Air Flow per Zone Floor Area {m3/s-m2}
  ,                                       !- Heating Maximum Air Flow {m3/s}
  ,                                       !- Heating Maximum Air Flow Fraction
  ,                                       !- Design Zone Air Distribution Effectiveness in Cooling Mode
  ,                                       !- Design Zone Air Distribution Effectiveness in Heating Mode
  No,                                     !- Account for Dedicated Outdoor Air System
  NeutralSupplyAir,                       !- Dedicated Outdoor Air System Control Strategy
  autosize,                               !- Dedicated Outdoor Air Low Setpoint Temperature for Design {C}
  autosize;                               !- Dedicated Outdoor Air High Setpoint Temperature for Design {C}

OS:ZoneHVAC:EquipmentList,
  {5a807bae-685a-498a-8435-86a9e11dffea}, !- Handle
  Zone HVAC Equipment List 2,             !- Name
  {057bb127-e1ef-4117-86f5-d80e72059dc8}, !- Thermal Zone
  SequentialLoad,                         !- Load Distribution Scheme
  {a7aac02e-24de-4ede-b5e3-ef06c624c7e1}, !- Zone Equipment 1
  1,                                      !- Zone Equipment Cooling Sequence 1
  1,                                      !- Zone Equipment Heating or No-Load Sequence 1
  ,                                       !- Zone Equipment Sequential Cooling Fraction 1
  ;                                       !- Zone Equipment Sequential Heating Fraction 1

OS:Space,
  {f4ca0d91-9063-460e-81af-5521aa295f1c}, !- Handle
  living space|unit 2,                    !- Name
  {71d6a47e-1235-43d4-9236-1db5a4434f9b}, !- Space Type Name
  ,                                       !- Default Construction Set Name
  ,                                       !- Default Schedule Set Name
  ,                                       !- Direction of Relative North {deg}
  ,                                       !- X Origin {m}
  ,                                       !- Y Origin {m}
  ,                                       !- Z Origin {m}
  ,                                       !- Building Story Name
  {057bb127-e1ef-4117-86f5-d80e72059dc8}, !- Thermal Zone Name
  ,                                       !- Part of Total Floor Area
  ,                                       !- Design Specification Outdoor Air Object Name
  {d990dd4e-44c5-4c2a-80ad-0c4e121954b7}; !- Building Unit Name

OS:Surface,
  {af1cd466-dc9c-485e-b71c-3000f9a27ed6}, !- Handle
  Surface 7,                              !- Name
  Floor,                                  !- Surface Type
  ,                                       !- Construction Name
  {f4ca0d91-9063-460e-81af-5521aa295f1c}, !- Space Name
  Foundation,                             !- Outside Boundary Condition
  ,                                       !- Outside Boundary Condition Object
  NoSun,                                  !- Sun Exposure
  NoWind,                                 !- Wind Exposure
  ,                                       !- View Factor to Ground
  ,                                       !- Number of Vertices
  0, 3.048, 0,                            !- X,Y,Z Vertex 1 {m}
  0, 15.9795688143396, 0,                 !- X,Y,Z Vertex 2 {m}
  6.46578440716979, 15.9795688143396, 0,  !- X,Y,Z Vertex 3 {m}
  6.46578440716979, 3.048, 0;             !- X,Y,Z Vertex 4 {m}

OS:Surface,
  {81f6a1db-8f18-4810-9772-773e4d622c95}, !- Handle
  Surface 8,                              !- Name
  Wall,                                   !- Surface Type
  ,                                       !- Construction Name
  {f4ca0d91-9063-460e-81af-5521aa295f1c}, !- Space Name
  Outdoors,                               !- Outside Boundary Condition
  ,                                       !- Outside Boundary Condition Object
  SunExposed,                             !- Sun Exposure
  WindExposed,                            !- Wind Exposure
  ,                                       !- View Factor to Ground
  ,                                       !- Number of Vertices
  0, 15.9795688143396, 2.4384,            !- X,Y,Z Vertex 1 {m}
  0, 15.9795688143396, 0,                 !- X,Y,Z Vertex 2 {m}
  0, 3.048, 0,                            !- X,Y,Z Vertex 3 {m}
  0, 3.048, 2.4384;                       !- X,Y,Z Vertex 4 {m}

OS:Surface,
  {c92ff135-c077-4e93-833a-b2c969d6be3f}, !- Handle
  Surface 9,                              !- Name
  Wall,                                   !- Surface Type
  ,                                       !- Construction Name
  {f4ca0d91-9063-460e-81af-5521aa295f1c}, !- Space Name
  Outdoors,                               !- Outside Boundary Condition
  ,                                       !- Outside Boundary Condition Object
  SunExposed,                             !- Sun Exposure
  WindExposed,                            !- Wind Exposure
  ,                                       !- View Factor to Ground
  ,                                       !- Number of Vertices
  6.46578440716979, 15.9795688143396, 2.4384, !- X,Y,Z Vertex 1 {m}
  6.46578440716979, 15.9795688143396, 0,  !- X,Y,Z Vertex 2 {m}
  0, 15.9795688143396, 0,                 !- X,Y,Z Vertex 3 {m}
  0, 15.9795688143396, 2.4384;            !- X,Y,Z Vertex 4 {m}

OS:Surface,
  {c0ee6a8b-f40b-48df-b434-fa860f6602f2}, !- Handle
  Surface 10,                             !- Name
  Wall,                                   !- Surface Type
  ,                                       !- Construction Name
  {f4ca0d91-9063-460e-81af-5521aa295f1c}, !- Space Name
  Surface,                                !- Outside Boundary Condition
  {d1b3de70-9fde-4828-b92b-8a9db735167a}, !- Outside Boundary Condition Object
  NoSun,                                  !- Sun Exposure
  NoWind,                                 !- Wind Exposure
  ,                                       !- View Factor to Ground
  ,                                       !- Number of Vertices
  6.46578440716979, 3.048, 2.4384,        !- X,Y,Z Vertex 1 {m}
  6.46578440716979, 3.048, 0,             !- X,Y,Z Vertex 2 {m}
  6.46578440716979, 15.9795688143396, 0,  !- X,Y,Z Vertex 3 {m}
  6.46578440716979, 15.9795688143396, 2.4384; !- X,Y,Z Vertex 4 {m}

OS:Surface,
  {8aef521c-9f67-4d9a-88f3-9b10f8ab2069}, !- Handle
  Surface 11,                             !- Name
  Wall,                                   !- Surface Type
  ,                                       !- Construction Name
  {f4ca0d91-9063-460e-81af-5521aa295f1c}, !- Space Name
  Adiabatic,                              !- Outside Boundary Condition
  ,                                       !- Outside Boundary Condition Object
  NoSun,                                  !- Sun Exposure
  NoWind,                                 !- Wind Exposure
  ,                                       !- View Factor to Ground
  ,                                       !- Number of Vertices
  0, 3.048, 2.4384,                       !- X,Y,Z Vertex 1 {m}
  0, 3.048, 0,                            !- X,Y,Z Vertex 2 {m}
  6.46578440716979, 3.048, 0,             !- X,Y,Z Vertex 3 {m}
  6.46578440716979, 3.048, 2.4384;        !- X,Y,Z Vertex 4 {m}

OS:Surface,
  {a8ee01d3-eda8-4f38-b304-20cfd5d0192a}, !- Handle
  Surface 12,                             !- Name
  RoofCeiling,                            !- Surface Type
  ,                                       !- Construction Name
  {f4ca0d91-9063-460e-81af-5521aa295f1c}, !- Space Name
  Outdoors,                               !- Outside Boundary Condition
  ,                                       !- Outside Boundary Condition Object
  SunExposed,                             !- Sun Exposure
  WindExposed,                            !- Wind Exposure
  ,                                       !- View Factor to Ground
  ,                                       !- Number of Vertices
  6.46578440716979, 3.048, 2.4384,        !- X,Y,Z Vertex 1 {m}
  6.46578440716979, 15.9795688143396, 2.4384, !- X,Y,Z Vertex 2 {m}
  0, 15.9795688143396, 2.4384,            !- X,Y,Z Vertex 3 {m}
  0, 3.048, 2.4384;                       !- X,Y,Z Vertex 4 {m}

OS:ThermalZone,
  {ed0695ac-bd38-4007-986e-74ed7f648e3f}, !- Handle
  living zone|unit 3,                     !- Name
  ,                                       !- Multiplier
  ,                                       !- Ceiling Height {m}
  ,                                       !- Volume {m3}
  ,                                       !- Floor Area {m2}
  ,                                       !- Zone Inside Convection Algorithm
  ,                                       !- Zone Outside Convection Algorithm
  ,                                       !- Zone Conditioning Equipment List Name
  {82758f9e-fc72-40d1-8ce1-a3624ce0b026}, !- Zone Air Inlet Port List
  {fd9c9d3e-56e1-4a99-a446-6606fd143b26}, !- Zone Air Exhaust Port List
  {f67289e2-777a-4b0c-a87b-6158c093ddd4}, !- Zone Air Node Name
  {991abb0c-3d27-427c-9289-47ad230af6f4}, !- Zone Return Air Port List
  ,                                       !- Primary Daylighting Control Name
  ,                                       !- Fraction of Zone Controlled by Primary Daylighting Control
  ,                                       !- Secondary Daylighting Control Name
  ,                                       !- Fraction of Zone Controlled by Secondary Daylighting Control
  ,                                       !- Illuminance Map Name
  ,                                       !- Group Rendering Name
  ,                                       !- Thermostat Name
  No;                                     !- Use Ideal Air Loads

OS:Node,
  {cbad9d3a-0e49-4289-8980-0e6f07c72418}, !- Handle
  Node 3,                                 !- Name
  {f67289e2-777a-4b0c-a87b-6158c093ddd4}, !- Inlet Port
  ;                                       !- Outlet Port

OS:Connection,
  {f67289e2-777a-4b0c-a87b-6158c093ddd4}, !- Handle
  {be147897-9e7a-4d19-ae7b-a62e07c17dda}, !- Name