!- NOTE: Auto-generated from /test/osw_files/MF_8units_1story_SL_Denver.osw

OS:Version,
  {cbebf4be-1acc-4bdc-9533-44e54ba79a93}, !- Handle
  2.9.0;                                  !- Version Identifier

OS:SimulationControl,
  {73746c22-23b6-41fe-b03a-68f42f8dd645}, !- Handle
  ,                                       !- Do Zone Sizing Calculation
  ,                                       !- Do System Sizing Calculation
  ,                                       !- Do Plant Sizing Calculation
  No;                                     !- Run Simulation for Sizing Periods

OS:Timestep,
  {214698bd-ba20-4aec-9b5e-61d7c5c96d98}, !- Handle
  6;                                      !- Number of Timesteps per Hour

OS:ShadowCalculation,
  {028af717-9d9b-4867-8bcc-b269f322cbba}, !- Handle
  20,                                     !- Calculation Frequency
  200;                                    !- Maximum Figures in Shadow Overlap Calculations

OS:SurfaceConvectionAlgorithm:Outside,
  {fa714851-8baa-4fda-b19f-0b12a4466241}, !- Handle
  DOE-2;                                  !- Algorithm

OS:SurfaceConvectionAlgorithm:Inside,
  {e2934979-9434-470d-a7fe-22a10f7083f1}, !- Handle
  TARP;                                   !- Algorithm

OS:ZoneCapacitanceMultiplier:ResearchSpecial,
  {7add2d73-183b-4329-a1c9-cac4a2a874cb}, !- Handle
  ,                                       !- Temperature Capacity Multiplier
  15,                                     !- Humidity Capacity Multiplier
  ;                                       !- Carbon Dioxide Capacity Multiplier

OS:RunPeriod,
  {97535892-4f9d-4f1e-9ff0-5596bf087209}, !- Handle
  Run Period 1,                           !- Name
  1,                                      !- Begin Month
  1,                                      !- Begin Day of Month
  12,                                     !- End Month
  31,                                     !- End Day of Month
  ,                                       !- Use Weather File Holidays and Special Days
  ,                                       !- Use Weather File Daylight Saving Period
  ,                                       !- Apply Weekend Holiday Rule
  ,                                       !- Use Weather File Rain Indicators
  ,                                       !- Use Weather File Snow Indicators
  ;                                       !- Number of Times Runperiod to be Repeated

OS:YearDescription,
  {f0b5d46d-0a68-42be-b449-4317b3305f44}, !- Handle
  2007,                                   !- Calendar Year
  ,                                       !- Day of Week for Start Day
  ;                                       !- Is Leap Year

OS:ThermalZone,
  {271eba9d-0cd0-4bca-9113-ff87ed024298}, !- Handle
  living zone,                            !- Name
  ,                                       !- Multiplier
  ,                                       !- Ceiling Height {m}
  ,                                       !- Volume {m3}
  ,                                       !- Floor Area {m2}
  ,                                       !- Zone Inside Convection Algorithm
  ,                                       !- Zone Outside Convection Algorithm
  ,                                       !- Zone Conditioning Equipment List Name
  {1b0bcb87-d694-4a7e-96b3-6cc4a8fdfdd1}, !- Zone Air Inlet Port List
  {ca67e92e-067c-4827-8df0-12ec45fb2b72}, !- Zone Air Exhaust Port List
  {49e0502c-e6ca-4c8a-9c9c-a0aa4648ca36}, !- Zone Air Node Name
  {a9e8d887-7759-41c5-80aa-8b5fa6b1aa3e}, !- Zone Return Air Port List
  ,                                       !- Primary Daylighting Control Name
  ,                                       !- Fraction of Zone Controlled by Primary Daylighting Control
  ,                                       !- Secondary Daylighting Control Name
  ,                                       !- Fraction of Zone Controlled by Secondary Daylighting Control
  ,                                       !- Illuminance Map Name
  ,                                       !- Group Rendering Name
  ,                                       !- Thermostat Name
  No;                                     !- Use Ideal Air Loads

OS:Node,
  {4cf85dfa-8c2b-46fa-ba12-c115b85debd7}, !- Handle
  Node 1,                                 !- Name
  {49e0502c-e6ca-4c8a-9c9c-a0aa4648ca36}, !- Inlet Port
  ;                                       !- Outlet Port

OS:Connection,
  {49e0502c-e6ca-4c8a-9c9c-a0aa4648ca36}, !- Handle
  {d4271210-a6e5-401b-bfbc-d8cf2963eba7}, !- Name
  {271eba9d-0cd0-4bca-9113-ff87ed024298}, !- Source Object
  11,                                     !- Outlet Port
  {4cf85dfa-8c2b-46fa-ba12-c115b85debd7}, !- Target Object
  2;                                      !- Inlet Port

OS:PortList,
  {1b0bcb87-d694-4a7e-96b3-6cc4a8fdfdd1}, !- Handle
  {52386be8-9a2d-4f95-839d-44ef1c681846}, !- Name
  {271eba9d-0cd0-4bca-9113-ff87ed024298}; !- HVAC Component

OS:PortList,
  {ca67e92e-067c-4827-8df0-12ec45fb2b72}, !- Handle
  {21afe767-431b-4540-88f2-f15fb25a6999}, !- Name
  {271eba9d-0cd0-4bca-9113-ff87ed024298}; !- HVAC Component

OS:PortList,
  {a9e8d887-7759-41c5-80aa-8b5fa6b1aa3e}, !- Handle
  {d81e16a1-73b8-4b5f-b68c-e2a59e2272a3}, !- Name
  {271eba9d-0cd0-4bca-9113-ff87ed024298}; !- HVAC Component

OS:Sizing:Zone,
  {1e7063d7-2d3b-4b17-a781-6b2ea0d6e801}, !- Handle
  {271eba9d-0cd0-4bca-9113-ff87ed024298}, !- Zone or ZoneList Name
  SupplyAirTemperature,                   !- Zone Cooling Design Supply Air Temperature Input Method
  14,                                     !- Zone Cooling Design Supply Air Temperature {C}
  11.11,                                  !- Zone Cooling Design Supply Air Temperature Difference {deltaC}
  SupplyAirTemperature,                   !- Zone Heating Design Supply Air Temperature Input Method
  40,                                     !- Zone Heating Design Supply Air Temperature {C}
  11.11,                                  !- Zone Heating Design Supply Air Temperature Difference {deltaC}
  0.0085,                                 !- Zone Cooling Design Supply Air Humidity Ratio {kg-H2O/kg-air}
  0.008,                                  !- Zone Heating Design Supply Air Humidity Ratio {kg-H2O/kg-air}
  ,                                       !- Zone Heating Sizing Factor
  ,                                       !- Zone Cooling Sizing Factor
  DesignDay,                              !- Cooling Design Air Flow Method
  ,                                       !- Cooling Design Air Flow Rate {m3/s}
  ,                                       !- Cooling Minimum Air Flow per Zone Floor Area {m3/s-m2}
  ,                                       !- Cooling Minimum Air Flow {m3/s}
  ,                                       !- Cooling Minimum Air Flow Fraction
  DesignDay,                              !- Heating Design Air Flow Method
  ,                                       !- Heating Design Air Flow Rate {m3/s}
  ,                                       !- Heating Maximum Air Flow per Zone Floor Area {m3/s-m2}
  ,                                       !- Heating Maximum Air Flow {m3/s}
  ,                                       !- Heating Maximum Air Flow Fraction
  ,                                       !- Design Zone Air Distribution Effectiveness in Cooling Mode
  ,                                       !- Design Zone Air Distribution Effectiveness in Heating Mode
  No,                                     !- Account for Dedicated Outdoor Air System
  NeutralSupplyAir,                       !- Dedicated Outdoor Air System Control Strategy
  autosize,                               !- Dedicated Outdoor Air Low Setpoint Temperature for Design {C}
  autosize;                               !- Dedicated Outdoor Air High Setpoint Temperature for Design {C}

OS:ZoneHVAC:EquipmentList,
  {16b05b1a-791b-4c16-b34b-c3e7ffd9399e}, !- Handle
  Zone HVAC Equipment List 1,             !- Name
  {271eba9d-0cd0-4bca-9113-ff87ed024298}; !- Thermal Zone

OS:Space,
  {a4ca5fb4-f63e-40e4-80f4-151bce845fb7}, !- Handle
  living space,                           !- Name
  {90c73354-4685-474d-ab4f-95fa87094b4e}, !- Space Type Name
  ,                                       !- Default Construction Set Name
  ,                                       !- Default Schedule Set Name
  ,                                       !- Direction of Relative North {deg}
  ,                                       !- X Origin {m}
  ,                                       !- Y Origin {m}
  ,                                       !- Z Origin {m}
  ,                                       !- Building Story Name
  {271eba9d-0cd0-4bca-9113-ff87ed024298}, !- Thermal Zone Name
  ,                                       !- Part of Total Floor Area
  ,                                       !- Design Specification Outdoor Air Object Name
  {9cd00b74-0a7f-4bf3-83d2-c2ced44f74c6}; !- Building Unit Name

OS:Surface,
  {156a418b-5a0b-48a6-b5af-9fa24f7c1114}, !- Handle
  Surface 1,                              !- Name
  Floor,                                  !- Surface Type
  ,                                       !- Construction Name
  {a4ca5fb4-f63e-40e4-80f4-151bce845fb7}, !- Space Name
  Foundation,                             !- Outside Boundary Condition
  ,                                       !- Outside Boundary Condition Object
  NoSun,                                  !- Sun Exposure
  NoWind,                                 !- Wind Exposure
  ,                                       !- View Factor to Ground
  ,                                       !- Number of Vertices
  0, -12.9315688143396, 0,                !- X,Y,Z Vertex 1 {m}
  0, 0, 0,                                !- X,Y,Z Vertex 2 {m}
  6.46578440716979, 0, 0,                 !- X,Y,Z Vertex 3 {m}
  6.46578440716979, -12.9315688143396, 0; !- X,Y,Z Vertex 4 {m}

OS:Surface,
  {fc22a632-03ce-4b83-a7dd-a6ec7861910c}, !- Handle
  Surface 2,                              !- Name
  Wall,                                   !- Surface Type
  ,                                       !- Construction Name
  {a4ca5fb4-f63e-40e4-80f4-151bce845fb7}, !- Space Name
  Outdoors,                               !- Outside Boundary Condition
  ,                                       !- Outside Boundary Condition Object
  SunExposed,                             !- Sun Exposure
  WindExposed,                            !- Wind Exposure
  ,                                       !- View Factor to Ground
  ,                                       !- Number of Vertices
  0, 0, 2.4384,                           !- X,Y,Z Vertex 1 {m}
  0, 0, 0,                                !- X,Y,Z Vertex 2 {m}
  0, -12.9315688143396, 0,                !- X,Y,Z Vertex 3 {m}
  0, -12.9315688143396, 2.4384;           !- X,Y,Z Vertex 4 {m}

OS:Surface,
  {ad6207e6-6a62-4f02-963f-b53a75df8932}, !- Handle
  Surface 3,                              !- Name
  Wall,                                   !- Surface Type
  ,                                       !- Construction Name
  {a4ca5fb4-f63e-40e4-80f4-151bce845fb7}, !- Space Name
  Adiabatic,                              !- Outside Boundary Condition
  ,                                       !- Outside Boundary Condition Object
  NoSun,                                  !- Sun Exposure
  NoWind,                                 !- Wind Exposure
  ,                                       !- View Factor to Ground
  ,                                       !- Number of Vertices
  6.46578440716979, 0, 2.4384,            !- X,Y,Z Vertex 1 {m}
  6.46578440716979, 0, 0,                 !- X,Y,Z Vertex 2 {m}
  0, 0, 0,                                !- X,Y,Z Vertex 3 {m}
  0, 0, 2.4384;                           !- X,Y,Z Vertex 4 {m}

OS:Surface,
  {d7cb525b-c5be-4586-808e-90f7f52c2e91}, !- Handle
  Surface 4,                              !- Name
  Wall,                                   !- Surface Type
  ,                                       !- Construction Name
  {a4ca5fb4-f63e-40e4-80f4-151bce845fb7}, !- Space Name
  Surface,                                !- Outside Boundary Condition
  {5a719716-5fcc-45c9-bac0-43086f74b49b}, !- Outside Boundary Condition Object
  NoSun,                                  !- Sun Exposure
  NoWind,                                 !- Wind Exposure
  ,                                       !- View Factor to Ground
  ,                                       !- Number of Vertices
  6.46578440716979, -12.9315688143396, 2.4384, !- X,Y,Z Vertex 1 {m}
  6.46578440716979, -12.9315688143396, 0, !- X,Y,Z Vertex 2 {m}
  6.46578440716979, 0, 0,                 !- X,Y,Z Vertex 3 {m}
  6.46578440716979, 0, 2.4384;            !- X,Y,Z Vertex 4 {m}

OS:Surface,
  {3da305d2-c6d2-4ff5-904f-d54eb6f71812}, !- Handle
  Surface 5,                              !- Name
  Wall,                                   !- Surface Type
  ,                                       !- Construction Name
  {a4ca5fb4-f63e-40e4-80f4-151bce845fb7}, !- Space Name
  Outdoors,                               !- Outside Boundary Condition
  ,                                       !- Outside Boundary Condition Object
  SunExposed,                             !- Sun Exposure
  WindExposed,                            !- Wind Exposure
  ,                                       !- View Factor to Ground
  ,                                       !- Number of Vertices
  0, -12.9315688143396, 2.4384,           !- X,Y,Z Vertex 1 {m}
  0, -12.9315688143396, 0,                !- X,Y,Z Vertex 2 {m}
  6.46578440716979, -12.9315688143396, 0, !- X,Y,Z Vertex 3 {m}
  6.46578440716979, -12.9315688143396, 2.4384; !- X,Y,Z Vertex 4 {m}

OS:Surface,
  {3325381a-1bc3-4e22-8496-18b13aab9692}, !- Handle
  Surface 6,                              !- Name
  RoofCeiling,                            !- Surface Type
  ,                                       !- Construction Name
  {a4ca5fb4-f63e-40e4-80f4-151bce845fb7}, !- Space Name
  Outdoors,                               !- Outside Boundary Condition
  ,                                       !- Outside Boundary Condition Object
  SunExposed,                             !- Sun Exposure
  WindExposed,                            !- Wind Exposure
  ,                                       !- View Factor to Ground
  ,                                       !- Number of Vertices
  6.46578440716979, -12.9315688143396, 2.4384, !- X,Y,Z Vertex 1 {m}
  6.46578440716979, 0, 2.4384,            !- X,Y,Z Vertex 2 {m}
  0, 0, 2.4384,                           !- X,Y,Z Vertex 3 {m}
  0, -12.9315688143396, 2.4384;           !- X,Y,Z Vertex 4 {m}

OS:SpaceType,
  {90c73354-4685-474d-ab4f-95fa87094b4e}, !- Handle
  Space Type 1,                           !- Name
  ,                                       !- Default Construction Set Name
  ,                                       !- Default Schedule Set Name
  ,                                       !- Group Rendering Name
  ,                                       !- Design Specification Outdoor Air Object Name
  ,                                       !- Standards Template
  ,                                       !- Standards Building Type
  living;                                 !- Standards Space Type

OS:ThermalZone,
  {e09da0d0-8728-4934-a6c3-b08452091a34}, !- Handle
  living zone|unit 2,                     !- Name
  ,                                       !- Multiplier
  ,                                       !- Ceiling Height {m}
  ,                                       !- Volume {m3}
  ,                                       !- Floor Area {m2}
  ,                                       !- Zone Inside Convection Algorithm
  ,                                       !- Zone Outside Convection Algorithm
  ,                                       !- Zone Conditioning Equipment List Name
  {91eb4645-2926-4623-b018-5eb9f5baab70}, !- Zone Air Inlet Port List
  {3cb297ae-bd46-46e1-b41a-5280a2fa31fc}, !- Zone Air Exhaust Port List
  {18c4c809-42b7-4605-8aa3-f65d92321f53}, !- Zone Air Node Name
  {39e1018b-63f5-4e56-9312-befa8ab84085}, !- Zone Return Air Port List
  ,                                       !- Primary Daylighting Control Name
  ,                                       !- Fraction of Zone Controlled by Primary Daylighting Control
  ,                                       !- Secondary Daylighting Control Name
  ,                                       !- Fraction of Zone Controlled by Secondary Daylighting Control
  ,                                       !- Illuminance Map Name
  ,                                       !- Group Rendering Name
  ,                                       !- Thermostat Name
  No;                                     !- Use Ideal Air Loads

OS:Node,
  {ed7b37e1-b5c0-4420-8d29-4aa734e69c08}, !- Handle
  Node 2,                                 !- Name
  {18c4c809-42b7-4605-8aa3-f65d92321f53}, !- Inlet Port
  ;                                       !- Outlet Port

OS:Connection,
  {18c4c809-42b7-4605-8aa3-f65d92321f53}, !- Handle
  {a10d7ac2-30d7-45aa-b096-417c2690e64f}, !- Name
  {e09da0d0-8728-4934-a6c3-b08452091a34}, !- Source Object
  11,                                     !- Outlet Port
  {ed7b37e1-b5c0-4420-8d29-4aa734e69c08}, !- Target Object
  2;                                      !- Inlet Port

OS:PortList,
  {91eb4645-2926-4623-b018-5eb9f5baab70}, !- Handle
  {799420a1-7ae6-468d-9b22-d9a5bdb532ea}, !- Name
  {e09da0d0-8728-4934-a6c3-b08452091a34}; !- HVAC Component

OS:PortList,
  {3cb297ae-bd46-46e1-b41a-5280a2fa31fc}, !- Handle
  {d4760a0f-c31f-475a-a618-a2384872771b}, !- Name
  {e09da0d0-8728-4934-a6c3-b08452091a34}; !- HVAC Component

OS:PortList,
  {39e1018b-63f5-4e56-9312-befa8ab84085}, !- Handle
  {c11ecdce-a480-41b2-950e-0cc844043ce4}, !- Name
  {e09da0d0-8728-4934-a6c3-b08452091a34}; !- HVAC Component

OS:Sizing:Zone,
  {828adc4e-aaf9-4ba7-972b-db286b0f0b98}, !- Handle
  {e09da0d0-8728-4934-a6c3-b08452091a34}, !- Zone or ZoneList Name
  SupplyAirTemperature,                   !- Zone Cooling Design Supply Air Temperature Input Method
  14,                                     !- Zone Cooling Design Supply Air Temperature {C}
  11.11,                                  !- Zone Cooling Design Supply Air Temperature Difference {deltaC}
  SupplyAirTemperature,                   !- Zone Heating Design Supply Air Temperature Input Method
  40,                                     !- Zone Heating Design Supply Air Temperature {C}
  11.11,                                  !- Zone Heating Design Supply Air Temperature Difference {deltaC}
  0.0085,                                 !- Zone Cooling Design Supply Air Humidity Ratio {kg-H2O/kg-air}
  0.008,                                  !- Zone Heating Design Supply Air Humidity Ratio {kg-H2O/kg-air}
  ,                                       !- Zone Heating Sizing Factor
  ,                                       !- Zone Cooling Sizing Factor
  DesignDay,                              !- Cooling Design Air Flow Method
  ,                                       !- Cooling Design Air Flow Rate {m3/s}
  ,                                       !- Cooling Minimum Air Flow per Zone Floor Area {m3/s-m2}
  ,                                       !- Cooling Minimum Air Flow {m3/s}
  ,                                       !- Cooling Minimum Air Flow Fraction
  DesignDay,                              !- Heating Design Air Flow Method
  ,                                       !- Heating Design Air Flow Rate {m3/s}
  ,                                       !- Heating Maximum Air Flow per Zone Floor Area {m3/s-m2}
  ,                                       !- Heating Maximum Air Flow {m3/s}
  ,                                       !- Heating Maximum Air Flow Fraction
  ,                                       !- Design Zone Air Distribution Effectiveness in Cooling Mode
  ,                                       !- Design Zone Air Distribution Effectiveness in Heating Mode
  No,                                     !- Account for Dedicated Outdoor Air System
  NeutralSupplyAir,                       !- Dedicated Outdoor Air System Control Strategy
  autosize,                               !- Dedicated Outdoor Air Low Setpoint Temperature for Design {C}
  autosize;                               !- Dedicated Outdoor Air High Setpoint Temperature for Design {C}

OS:ZoneHVAC:EquipmentList,
  {aa6f3461-eb38-4fe2-b475-a7ab6ce148df}, !- Handle
  Zone HVAC Equipment List 2,             !- Name
  {e09da0d0-8728-4934-a6c3-b08452091a34}; !- Thermal Zone

OS:Space,
  {466c590f-7fbb-4192-ab5a-03bc634ef6b4}, !- Handle
  living space|unit 2,                    !- Name
  {90c73354-4685-474d-ab4f-95fa87094b4e}, !- Space Type Name
  ,                                       !- Default Construction Set Name
  ,                                       !- Default Schedule Set Name
  ,                                       !- Direction of Relative North {deg}
  ,                                       !- X Origin {m}
  ,                                       !- Y Origin {m}
  ,                                       !- Z Origin {m}
  ,                                       !- Building Story Name
  {e09da0d0-8728-4934-a6c3-b08452091a34}, !- Thermal Zone Name
  ,                                       !- Part of Total Floor Area
  ,                                       !- Design Specification Outdoor Air Object Name
  {82db71e0-8ade-4d8b-b8ce-32293c972dc1}; !- Building Unit Name

OS:Surface,
  {809c80cb-0171-4743-a51c-e3755ffac803}, !- Handle
  Surface 7,                              !- Name
  Floor,                                  !- Surface Type
  ,                                       !- Construction Name
  {466c590f-7fbb-4192-ab5a-03bc634ef6b4}, !- Space Name
  Foundation,                             !- Outside Boundary Condition
  ,                                       !- Outside Boundary Condition Object
  NoSun,                                  !- Sun Exposure
  NoWind,                                 !- Wind Exposure
  ,                                       !- View Factor to Ground
  ,                                       !- Number of Vertices
  0, 3.048, 0,                            !- X,Y,Z Vertex 1 {m}
  0, 15.9795688143396, 0,                 !- X,Y,Z Vertex 2 {m}
  6.46578440716979, 15.9795688143396, 0,  !- X,Y,Z Vertex 3 {m}
  6.46578440716979, 3.048, 0;             !- X,Y,Z Vertex 4 {m}

OS:Surface,
  {1260ddbe-730d-4b17-958d-9d335890edd7}, !- Handle
  Surface 8,                              !- Name
  Wall,                                   !- Surface Type
  ,                                       !- Construction Name
  {466c590f-7fbb-4192-ab5a-03bc634ef6b4}, !- Space Name
  Outdoors,                               !- Outside Boundary Condition
  ,                                       !- Outside Boundary Condition Object
  SunExposed,                             !- Sun Exposure
  WindExposed,                            !- Wind Exposure
  ,                                       !- View Factor to Ground
  ,                                       !- Number of Vertices
  0, 15.9795688143396, 2.4384,            !- X,Y,Z Vertex 1 {m}
  0, 15.9795688143396, 0,                 !- X,Y,Z Vertex 2 {m}
  0, 3.048, 0,                            !- X,Y,Z Vertex 3 {m}
  0, 3.048, 2.4384;                       !- X,Y,Z Vertex 4 {m}

OS:Surface,
  {2099978d-cf72-4efc-953a-7c9aadfb9fe1}, !- Handle
  Surface 9,                              !- Name
  Wall,                                   !- Surface Type
  ,                                       !- Construction Name
  {466c590f-7fbb-4192-ab5a-03bc634ef6b4}, !- Space Name
  Outdoors,                               !- Outside Boundary Condition
  ,                                       !- Outside Boundary Condition Object
  SunExposed,                             !- Sun Exposure
  WindExposed,                            !- Wind Exposure
  ,                                       !- View Factor to Ground
  ,                                       !- Number of Vertices
  6.46578440716979, 15.9795688143396, 2.4384, !- X,Y,Z Vertex 1 {m}
  6.46578440716979, 15.9795688143396, 0,  !- X,Y,Z Vertex 2 {m}
  0, 15.9795688143396, 0,                 !- X,Y,Z Vertex 3 {m}
  0, 15.9795688143396, 2.4384;            !- X,Y,Z Vertex 4 {m}

OS:Surface,
  {32bb0014-1503-4565-8e92-77ff72830519}, !- Handle
  Surface 10,                             !- Name
  Wall,                                   !- Surface Type
  ,                                       !- Construction Name
  {466c590f-7fbb-4192-ab5a-03bc634ef6b4}, !- Space Name
  Surface,                                !- Outside Boundary Condition
  {b085af82-e8f9-4f56-98af-f8ba6a48338a}, !- Outside Boundary Condition Object
  NoSun,                                  !- Sun Exposure
  NoWind,                                 !- Wind Exposure
  ,                                       !- View Factor to Ground
  ,                                       !- Number of Vertices
  6.46578440716979, 3.048, 2.4384,        !- X,Y,Z Vertex 1 {m}
  6.46578440716979, 3.048, 0,             !- X,Y,Z Vertex 2 {m}
  6.46578440716979, 15.9795688143396, 0,  !- X,Y,Z Vertex 3 {m}
  6.46578440716979, 15.9795688143396, 2.4384; !- X,Y,Z Vertex 4 {m}

OS:Surface,
  {1c636b88-5d05-4d0e-81d7-f01d7a5850d1}, !- Handle
  Surface 11,                             !- Name
  Wall,                                   !- Surface Type
  ,                                       !- Construction Name
  {466c590f-7fbb-4192-ab5a-03bc634ef6b4}, !- Space Name
  Adiabatic,                              !- Outside Boundary Condition
  ,                                       !- Outside Boundary Condition Object
  NoSun,                                  !- Sun Exposure
  NoWind,                                 !- Wind Exposure
  ,                                       !- View Factor to Ground
  ,                                       !- Number of Vertices
  0, 3.048, 2.4384,                       !- X,Y,Z Vertex 1 {m}
  0, 3.048, 0,                            !- X,Y,Z Vertex 2 {m}
  6.46578440716979, 3.048, 0,             !- X,Y,Z Vertex 3 {m}
  6.46578440716979, 3.048, 2.4384;        !- X,Y,Z Vertex 4 {m}

OS:Surface,
  {856779b9-9b23-4e72-b93b-d395a34896dc}, !- Handle
  Surface 12,                             !- Name
  RoofCeiling,                            !- Surface Type
  ,                                       !- Construction Name
  {466c590f-7fbb-4192-ab5a-03bc634ef6b4}, !- Space Name
  Outdoors,                               !- Outside Boundary Condition
  ,                                       !- Outside Boundary Condition Object
  SunExposed,                             !- Sun Exposure
  WindExposed,                            !- Wind Exposure
  ,                                       !- View Factor to Ground
  ,                                       !- Number of Vertices
  6.46578440716979, 3.048, 2.4384,        !- X,Y,Z Vertex 1 {m}
  6.46578440716979, 15.9795688143396, 2.4384, !- X,Y,Z Vertex 2 {m}
  0, 15.9795688143396, 2.4384,            !- X,Y,Z Vertex 3 {m}
  0, 3.048, 2.4384;                       !- X,Y,Z Vertex 4 {m}

OS:ThermalZone,
  {e4f912c8-b29c-4238-90d7-b598b92decb0}, !- Handle
  living zone|unit 3,                     !- Name
  ,                                       !- Multiplier
  ,                                       !- Ceiling Height {m}
  ,                                       !- Volume {m3}
  ,                                       !- Floor Area {m2}
  ,                                       !- Zone Inside Convection Algorithm
  ,                                       !- Zone Outside Convection Algorithm
  ,                                       !- Zone Conditioning Equipment List Name
  {1e78d188-046c-4dce-8d0a-0d35366c0da6}, !- Zone Air Inlet Port List
  {a266993a-fbe8-4e04-9311-b7c8a65c191c}, !- Zone Air Exhaust Port List
  {b03388bc-f28c-495c-9941-c7e61ec98a90}, !- Zone Air Node Name
  {f7a04020-0906-4773-bbdd-51712810c34b}, !- Zone Return Air Port List
  ,                                       !- Primary Daylighting Control Name
  ,                                       !- Fraction of Zone Controlled by Primary Daylighting Control
  ,                                       !- Secondary Daylighting Control Name
  ,                                       !- Fraction of Zone Controlled by Secondary Daylighting Control
  ,                                       !- Illuminance Map Name
  ,                                       !- Group Rendering Name
  ,                                       !- Thermostat Name
  No;                                     !- Use Ideal Air Loads

OS:Node,
  {48299cd8-01f2-4f2b-83ed-cb883ca70bf7}, !- Handle
  Node 3,                                 !- Name
  {b03388bc-f28c-495c-9941-c7e61ec98a90}, !- Inlet Port
  ;                                       !- Outlet Port

OS:Connection,
  {b03388bc-f28c-495c-9941-c7e61ec98a90}, !- Handle
  {dc3aa173-0e07-4307-91fa-85279bb5f4c3}, !- Name
  {e4f912c8-b29c-4238-90d7-b598b92decb0}, !- Source Object
  11,                                     !- Outlet Port
  {48299cd8-01f2-4f2b-83ed-cb883ca70bf7}, !- Target Object
  2;                                      !- Inlet Port

OS:PortList,
  {1e78d188-046c-4dce-8d0a-0d35366c0da6}, !- Handle
  {64d00df5-caae-41ea-9e66-6dc6d2d1baa6}, !- Name
  {e4f912c8-b29c-4238-90d7-b598b92decb0}; !- HVAC Component

OS:PortList,
  {a266993a-fbe8-4e04-9311-b7c8a65c191c}, !- Handle
  {1ef63cb4-f7d8-4451-b142-7af95948a599}, !- Name
  {e4f912c8-b29c-4238-90d7-b598b92decb0}; !- HVAC Component

OS:PortList,
  {f7a04020-0906-4773-bbdd-51712810c34b}, !- Handle
  {6bf8e1ac-29b3-4235-b3ce-f9ec8e606d01}, !- Name
  {e4f912c8-b29c-4238-90d7-b598b92decb0}; !- HVAC Component

OS:Sizing:Zone,
  {a1e90d01-1417-416b-8e0c-20d3b522f1ab}, !- Handle
  {e4f912c8-b29c-4238-90d7-b598b92decb0}, !- Zone or ZoneList Name
  SupplyAirTemperature,                   !- Zone Cooling Design Supply Air Temperature Input Method