!- NOTE: Auto-generated from /test/osw_files/MF_8units_1story_UB_3Beds_2Baths_Denver.osw

OS:Version,
  {f8b7a95c-be24-4d61-8dab-015d6733a398}, !- Handle
  2.8.1;                                  !- Version Identifier

OS:SimulationControl,
  {3c7d03c0-bcfa-46d7-b055-083a70d55e68}, !- Handle
  ,                                       !- Do Zone Sizing Calculation
  ,                                       !- Do System Sizing Calculation
  ,                                       !- Do Plant Sizing Calculation
  No;                                     !- Run Simulation for Sizing Periods

OS:Timestep,
  {5d816d07-b7a7-4111-8911-afb89fb6ab06}, !- Handle
  6;                                      !- Number of Timesteps per Hour

OS:ShadowCalculation,
  {951f1025-2361-418b-a05c-bedf7fcf8ba8}, !- Handle
  20,                                     !- Calculation Frequency
  200;                                    !- Maximum Figures in Shadow Overlap Calculations

OS:SurfaceConvectionAlgorithm:Outside,
  {d9aea9ce-4c39-4e07-a072-8c064d546d78}, !- Handle
  DOE-2;                                  !- Algorithm

OS:SurfaceConvectionAlgorithm:Inside,
  {b45212d5-1087-456f-8af2-cb3270eeb2cb}, !- Handle
  TARP;                                   !- Algorithm

OS:ZoneCapacitanceMultiplier:ResearchSpecial,
  {227e1e75-e672-4fd4-9c10-543bb9fa533e}, !- Handle
  ,                                       !- Temperature Capacity Multiplier
  15,                                     !- Humidity Capacity Multiplier
  ;                                       !- Carbon Dioxide Capacity Multiplier

OS:RunPeriod,
  {c04e3e33-fcda-44f3-9885-eee71b4053a8}, !- Handle
  Run Period 1,                           !- Name
  1,                                      !- Begin Month
  1,                                      !- Begin Day of Month
  12,                                     !- End Month
  31,                                     !- End Day of Month
  ,                                       !- Use Weather File Holidays and Special Days
  ,                                       !- Use Weather File Daylight Saving Period
  ,                                       !- Apply Weekend Holiday Rule
  ,                                       !- Use Weather File Rain Indicators
  ,                                       !- Use Weather File Snow Indicators
  ;                                       !- Number of Times Runperiod to be Repeated

OS:YearDescription,
  {38190fe7-f60d-4ddd-be80-4bfc78b9ba57}, !- Handle
  2007,                                   !- Calendar Year
  ,                                       !- Day of Week for Start Day
  ;                                       !- Is Leap Year

OS:ThermalZone,
  {9fb1c187-8397-46e4-a199-9e29f2f36876}, !- Handle
  living zone,                            !- Name
  ,                                       !- Multiplier
  ,                                       !- Ceiling Height {m}
  ,                                       !- Volume {m3}
  ,                                       !- Floor Area {m2}
  ,                                       !- Zone Inside Convection Algorithm
  ,                                       !- Zone Outside Convection Algorithm
  ,                                       !- Zone Conditioning Equipment List Name
  {de28faf4-272a-4602-802d-24a8755000f8}, !- Zone Air Inlet Port List
  {39ddb3b7-a7f7-4d74-b417-12488e9f4be3}, !- Zone Air Exhaust Port List
  {b133f7a8-9fcb-4a17-a3bf-89d40c0ea04e}, !- Zone Air Node Name
  {09fa117e-ed12-4b66-ad4a-6867c280aad3}, !- Zone Return Air Port List
  ,                                       !- Primary Daylighting Control Name
  ,                                       !- Fraction of Zone Controlled by Primary Daylighting Control
  ,                                       !- Secondary Daylighting Control Name
  ,                                       !- Fraction of Zone Controlled by Secondary Daylighting Control
  ,                                       !- Illuminance Map Name
  ,                                       !- Group Rendering Name
  ,                                       !- Thermostat Name
  No;                                     !- Use Ideal Air Loads

OS:Node,
  {c9f5bc07-9ac1-4466-8c9d-fb1db56242cf}, !- Handle
  Node 1,                                 !- Name
  {b133f7a8-9fcb-4a17-a3bf-89d40c0ea04e}, !- Inlet Port
  ;                                       !- Outlet Port

OS:Connection,
  {b133f7a8-9fcb-4a17-a3bf-89d40c0ea04e}, !- Handle
  {43eace98-34bb-4b9f-af6d-3d27e312e6ea}, !- Name
  {9fb1c187-8397-46e4-a199-9e29f2f36876}, !- Source Object
  11,                                     !- Outlet Port
  {c9f5bc07-9ac1-4466-8c9d-fb1db56242cf}, !- Target Object
  2;                                      !- Inlet Port

OS:PortList,
  {de28faf4-272a-4602-802d-24a8755000f8}, !- Handle
  {28ec696d-1e4a-4550-ae18-db750505841f}, !- Name
  {9fb1c187-8397-46e4-a199-9e29f2f36876}; !- HVAC Component

OS:PortList,
  {39ddb3b7-a7f7-4d74-b417-12488e9f4be3}, !- Handle
  {0dd7e53e-70b3-4ac8-82a5-ce751f1e6eb3}, !- Name
  {9fb1c187-8397-46e4-a199-9e29f2f36876}; !- HVAC Component

OS:PortList,
  {09fa117e-ed12-4b66-ad4a-6867c280aad3}, !- Handle
  {dc52c6fa-2750-4f2c-abdd-00890ff460b6}, !- Name
  {9fb1c187-8397-46e4-a199-9e29f2f36876}; !- HVAC Component

OS:Sizing:Zone,
  {94ab9d7c-226e-4548-a93e-c927d114ebff}, !- Handle
  {9fb1c187-8397-46e4-a199-9e29f2f36876}, !- Zone or ZoneList Name
  SupplyAirTemperature,                   !- Zone Cooling Design Supply Air Temperature Input Method
  14,                                     !- Zone Cooling Design Supply Air Temperature {C}
  11.11,                                  !- Zone Cooling Design Supply Air Temperature Difference {deltaC}
  SupplyAirTemperature,                   !- Zone Heating Design Supply Air Temperature Input Method
  40,                                     !- Zone Heating Design Supply Air Temperature {C}
  11.11,                                  !- Zone Heating Design Supply Air Temperature Difference {deltaC}
  0.0085,                                 !- Zone Cooling Design Supply Air Humidity Ratio {kg-H2O/kg-air}
  0.008,                                  !- Zone Heating Design Supply Air Humidity Ratio {kg-H2O/kg-air}
  ,                                       !- Zone Heating Sizing Factor
  ,                                       !- Zone Cooling Sizing Factor
  DesignDay,                              !- Cooling Design Air Flow Method
  ,                                       !- Cooling Design Air Flow Rate {m3/s}
  ,                                       !- Cooling Minimum Air Flow per Zone Floor Area {m3/s-m2}
  ,                                       !- Cooling Minimum Air Flow {m3/s}
  ,                                       !- Cooling Minimum Air Flow Fraction
  DesignDay,                              !- Heating Design Air Flow Method
  ,                                       !- Heating Design Air Flow Rate {m3/s}
  ,                                       !- Heating Maximum Air Flow per Zone Floor Area {m3/s-m2}
  ,                                       !- Heating Maximum Air Flow {m3/s}
  ,                                       !- Heating Maximum Air Flow Fraction
  ,                                       !- Design Zone Air Distribution Effectiveness in Cooling Mode
  ,                                       !- Design Zone Air Distribution Effectiveness in Heating Mode
  No,                                     !- Account for Dedicated Outdoor Air System
  NeutralSupplyAir,                       !- Dedicated Outdoor Air System Control Strategy
  autosize,                               !- Dedicated Outdoor Air Low Setpoint Temperature for Design {C}
  autosize;                               !- Dedicated Outdoor Air High Setpoint Temperature for Design {C}

OS:ZoneHVAC:EquipmentList,
  {125e1add-bd5f-4b33-b652-952c10343a3f}, !- Handle
  Zone HVAC Equipment List 1,             !- Name
  {9fb1c187-8397-46e4-a199-9e29f2f36876}; !- Thermal Zone

OS:Space,
  {29c8011a-7647-450d-a673-24bdf194862c}, !- Handle
  living space,                           !- Name
  {eb822696-1b47-4f52-a7b5-838aba540c94}, !- Space Type Name
  ,                                       !- Default Construction Set Name
  ,                                       !- Default Schedule Set Name
  ,                                       !- Direction of Relative North {deg}
  ,                                       !- X Origin {m}
  ,                                       !- Y Origin {m}
  ,                                       !- Z Origin {m}
  ,                                       !- Building Story Name
  {9fb1c187-8397-46e4-a199-9e29f2f36876}, !- Thermal Zone Name
  ,                                       !- Part of Total Floor Area
  ,                                       !- Design Specification Outdoor Air Object Name
  {0de49b89-de61-4d02-8db3-1b92ea8f67a1}; !- Building Unit Name

OS:Surface,
  {c5a9e7e4-77d7-4064-a27b-1a8dcad97dce}, !- Handle
  Surface 1,                              !- Name
  Floor,                                  !- Surface Type
  ,                                       !- Construction Name
  {29c8011a-7647-450d-a673-24bdf194862c}, !- Space Name
  Surface,                                !- Outside Boundary Condition
  {2ca1d48e-ca6f-416c-9be8-f24ff0c4f3d4}, !- Outside Boundary Condition Object
  NoSun,                                  !- Sun Exposure
  NoWind,                                 !- Wind Exposure
  ,                                       !- View Factor to Ground
  ,                                       !- Number of Vertices
  0, -12.9315688143396, 0,                !- X,Y,Z Vertex 1 {m}
  0, 0, 0,                                !- X,Y,Z Vertex 2 {m}
  6.46578440716979, 0, 0,                 !- X,Y,Z Vertex 3 {m}
  6.46578440716979, -12.9315688143396, 0; !- X,Y,Z Vertex 4 {m}

OS:Surface,
  {d98fa7f4-3816-4bc4-a937-5743a6f3e7ed}, !- Handle
  Surface 2,                              !- Name
  Wall,                                   !- Surface Type
  ,                                       !- Construction Name
  {29c8011a-7647-450d-a673-24bdf194862c}, !- Space Name
  Outdoors,                               !- Outside Boundary Condition
  ,                                       !- Outside Boundary Condition Object
  SunExposed,                             !- Sun Exposure
  WindExposed,                            !- Wind Exposure
  ,                                       !- View Factor to Ground
  ,                                       !- Number of Vertices
  0, 0, 2.4384,                           !- X,Y,Z Vertex 1 {m}
  0, 0, 0,                                !- X,Y,Z Vertex 2 {m}
  0, -12.9315688143396, 0,                !- X,Y,Z Vertex 3 {m}
  0, -12.9315688143396, 2.4384;           !- X,Y,Z Vertex 4 {m}

OS:Surface,
  {15c1d5a5-c49b-4c50-859d-e98be047a207}, !- Handle
  Surface 3,                              !- Name
  Wall,                                   !- Surface Type
  ,                                       !- Construction Name
  {29c8011a-7647-450d-a673-24bdf194862c}, !- Space Name
  Adiabatic,                              !- Outside Boundary Condition
  ,                                       !- Outside Boundary Condition Object
  NoSun,                                  !- Sun Exposure
  NoWind,                                 !- Wind Exposure
  ,                                       !- View Factor to Ground
  ,                                       !- Number of Vertices
  6.46578440716979, 0, 2.4384,            !- X,Y,Z Vertex 1 {m}
  6.46578440716979, 0, 0,                 !- X,Y,Z Vertex 2 {m}
  0, 0, 0,                                !- X,Y,Z Vertex 3 {m}
  0, 0, 2.4384;                           !- X,Y,Z Vertex 4 {m}

OS:Surface,
  {0e05c761-dab1-4179-b791-d20ea2d93acd}, !- Handle
  Surface 4,                              !- Name
  Wall,                                   !- Surface Type
  ,                                       !- Construction Name
  {29c8011a-7647-450d-a673-24bdf194862c}, !- Space Name
  Surface,                                !- Outside Boundary Condition
  {10835a20-1f97-4658-b0a7-1047d7ca0367}, !- Outside Boundary Condition Object
  NoSun,                                  !- Sun Exposure
  NoWind,                                 !- Wind Exposure
  ,                                       !- View Factor to Ground
  ,                                       !- Number of Vertices
  6.46578440716979, -12.9315688143396, 2.4384, !- X,Y,Z Vertex 1 {m}
  6.46578440716979, -12.9315688143396, 0, !- X,Y,Z Vertex 2 {m}
  6.46578440716979, 0, 0,                 !- X,Y,Z Vertex 3 {m}
  6.46578440716979, 0, 2.4384;            !- X,Y,Z Vertex 4 {m}

OS:Surface,
  {668cda09-bcfd-4896-82af-bd1ffee9beb0}, !- Handle
  Surface 5,                              !- Name
  Wall,                                   !- Surface Type
  ,                                       !- Construction Name
  {29c8011a-7647-450d-a673-24bdf194862c}, !- Space Name
  Outdoors,                               !- Outside Boundary Condition
  ,                                       !- Outside Boundary Condition Object
  SunExposed,                             !- Sun Exposure
  WindExposed,                            !- Wind Exposure
  ,                                       !- View Factor to Ground
  ,                                       !- Number of Vertices
  0, -12.9315688143396, 2.4384,           !- X,Y,Z Vertex 1 {m}
  0, -12.9315688143396, 0,                !- X,Y,Z Vertex 2 {m}
  6.46578440716979, -12.9315688143396, 0, !- X,Y,Z Vertex 3 {m}
  6.46578440716979, -12.9315688143396, 2.4384; !- X,Y,Z Vertex 4 {m}

OS:Surface,
  {640ae300-a29c-401c-a812-527b19754732}, !- Handle
  Surface 6,                              !- Name
  RoofCeiling,                            !- Surface Type
  ,                                       !- Construction Name
  {29c8011a-7647-450d-a673-24bdf194862c}, !- Space Name
  Outdoors,                               !- Outside Boundary Condition
  ,                                       !- Outside Boundary Condition Object
  SunExposed,                             !- Sun Exposure
  WindExposed,                            !- Wind Exposure
  ,                                       !- View Factor to Ground
  ,                                       !- Number of Vertices
  6.46578440716979, -12.9315688143396, 2.4384, !- X,Y,Z Vertex 1 {m}
  6.46578440716979, 0, 2.4384,            !- X,Y,Z Vertex 2 {m}
  0, 0, 2.4384,                           !- X,Y,Z Vertex 3 {m}
  0, -12.9315688143396, 2.4384;           !- X,Y,Z Vertex 4 {m}

OS:SpaceType,
  {eb822696-1b47-4f52-a7b5-838aba540c94}, !- Handle
  Space Type 1,                           !- Name
  ,                                       !- Default Construction Set Name
  ,                                       !- Default Schedule Set Name
  ,                                       !- Group Rendering Name
  ,                                       !- Design Specification Outdoor Air Object Name
  ,                                       !- Standards Template
  ,                                       !- Standards Building Type
  living;                                 !- Standards Space Type

OS:ThermalZone,
  {282be427-d804-4449-a8ba-84fc156f11c7}, !- Handle
  living zone|unit 2,                     !- Name
  ,                                       !- Multiplier
  ,                                       !- Ceiling Height {m}
  ,                                       !- Volume {m3}
  ,                                       !- Floor Area {m2}
  ,                                       !- Zone Inside Convection Algorithm
  ,                                       !- Zone Outside Convection Algorithm
  ,                                       !- Zone Conditioning Equipment List Name
  {f5114641-0e8d-4ff9-bc1a-4efe525972ee}, !- Zone Air Inlet Port List
  {21f75c6e-5e2d-42ab-ab40-f2c5fae88284}, !- Zone Air Exhaust Port List
  {f4c5a5e4-995a-42c3-9927-89fab8612ab1}, !- Zone Air Node Name
  {50f2e645-0b9c-4a50-9584-2c8b59b81260}, !- Zone Return Air Port List
  ,                                       !- Primary Daylighting Control Name
  ,                                       !- Fraction of Zone Controlled by Primary Daylighting Control
  ,                                       !- Secondary Daylighting Control Name
  ,                                       !- Fraction of Zone Controlled by Secondary Daylighting Control
  ,                                       !- Illuminance Map Name
  ,                                       !- Group Rendering Name
  ,                                       !- Thermostat Name
  No;                                     !- Use Ideal Air Loads

OS:Node,
  {fb9b91f2-e412-49f2-a0ee-89fc04bfdefc}, !- Handle
  Node 2,                                 !- Name
  {f4c5a5e4-995a-42c3-9927-89fab8612ab1}, !- Inlet Port
  ;                                       !- Outlet Port

OS:Connection,
  {f4c5a5e4-995a-42c3-9927-89fab8612ab1}, !- Handle
  {6ec9687a-9456-44ab-9f5c-19da2f0ce2cd}, !- Name
  {282be427-d804-4449-a8ba-84fc156f11c7}, !- Source Object
  11,                                     !- Outlet Port
  {fb9b91f2-e412-49f2-a0ee-89fc04bfdefc}, !- Target Object
  2;                                      !- Inlet Port

OS:PortList,
  {f5114641-0e8d-4ff9-bc1a-4efe525972ee}, !- Handle
  {8a7a36d7-3c8b-4074-83de-c203a3a7fae4}, !- Name
  {282be427-d804-4449-a8ba-84fc156f11c7}; !- HVAC Component

OS:PortList,
  {21f75c6e-5e2d-42ab-ab40-f2c5fae88284}, !- Handle
  {998db616-bca3-4a34-ab80-3aa4b2cf1ee9}, !- Name
  {282be427-d804-4449-a8ba-84fc156f11c7}; !- HVAC Component

OS:PortList,
  {50f2e645-0b9c-4a50-9584-2c8b59b81260}, !- Handle
  {359dc67d-a14d-4d05-b60d-0dd73bd8a925}, !- Name
  {282be427-d804-4449-a8ba-84fc156f11c7}; !- HVAC Component

OS:Sizing:Zone,
  {c92291d1-f5b6-48e5-abdc-79aa7287071b}, !- Handle
  {282be427-d804-4449-a8ba-84fc156f11c7}, !- Zone or ZoneList Name
  SupplyAirTemperature,                   !- Zone Cooling Design Supply Air Temperature Input Method
  14,                                     !- Zone Cooling Design Supply Air Temperature {C}
  11.11,                                  !- Zone Cooling Design Supply Air Temperature Difference {deltaC}
  SupplyAirTemperature,                   !- Zone Heating Design Supply Air Temperature Input Method
  40,                                     !- Zone Heating Design Supply Air Temperature {C}
  11.11,                                  !- Zone Heating Design Supply Air Temperature Difference {deltaC}
  0.0085,                                 !- Zone Cooling Design Supply Air Humidity Ratio {kg-H2O/kg-air}
  0.008,                                  !- Zone Heating Design Supply Air Humidity Ratio {kg-H2O/kg-air}
  ,                                       !- Zone Heating Sizing Factor
  ,                                       !- Zone Cooling Sizing Factor
  DesignDay,                              !- Cooling Design Air Flow Method
  ,                                       !- Cooling Design Air Flow Rate {m3/s}
  ,                                       !- Cooling Minimum Air Flow per Zone Floor Area {m3/s-m2}
  ,                                       !- Cooling Minimum Air Flow {m3/s}
  ,                                       !- Cooling Minimum Air Flow Fraction
  DesignDay,                              !- Heating Design Air Flow Method
  ,                                       !- Heating Design Air Flow Rate {m3/s}
  ,                                       !- Heating Maximum Air Flow per Zone Floor Area {m3/s-m2}
  ,                                       !- Heating Maximum Air Flow {m3/s}
  ,                                       !- Heating Maximum Air Flow Fraction
  ,                                       !- Design Zone Air Distribution Effectiveness in Cooling Mode
  ,                                       !- Design Zone Air Distribution Effectiveness in Heating Mode
  No,                                     !- Account for Dedicated Outdoor Air System
  NeutralSupplyAir,                       !- Dedicated Outdoor Air System Control Strategy
  autosize,                               !- Dedicated Outdoor Air Low Setpoint Temperature for Design {C}
  autosize;                               !- Dedicated Outdoor Air High Setpoint Temperature for Design {C}

OS:ZoneHVAC:EquipmentList,
  {1094fc69-f100-4d54-863c-95c5578e26b7}, !- Handle
  Zone HVAC Equipment List 2,             !- Name
  {282be427-d804-4449-a8ba-84fc156f11c7}; !- Thermal Zone

OS:Space,
  {7581a539-4321-4f04-81a4-7f4c6f7e6579}, !- Handle
  living space|unit 2,                    !- Name
  {eb822696-1b47-4f52-a7b5-838aba540c94}, !- Space Type Name
  ,                                       !- Default Construction Set Name
  ,                                       !- Default Schedule Set Name
  ,                                       !- Direction of Relative North {deg}
  ,                                       !- X Origin {m}
  ,                                       !- Y Origin {m}
  ,                                       !- Z Origin {m}
  ,                                       !- Building Story Name
  {282be427-d804-4449-a8ba-84fc156f11c7}, !- Thermal Zone Name
  ,                                       !- Part of Total Floor Area
  ,                                       !- Design Specification Outdoor Air Object Name
  {4878fe65-d46f-4a7e-bb6b-063f877bef7a}; !- Building Unit Name

OS:Surface,
  {e2dd0c96-c8c7-4ef8-8a77-60cf2cf092a0}, !- Handle
  Surface 7,                              !- Name
  Floor,                                  !- Surface Type
  ,                                       !- Construction Name
  {7581a539-4321-4f04-81a4-7f4c6f7e6579}, !- Space Name
  Surface,                                !- Outside Boundary Condition
  {bfd11cad-a14b-4002-8388-3bff329b99ef}, !- Outside Boundary Condition Object
  NoSun,                                  !- Sun Exposure
  NoWind,                                 !- Wind Exposure
  ,                                       !- View Factor to Ground
  ,                                       !- Number of Vertices
  0, 3.048, 0,                            !- X,Y,Z Vertex 1 {m}
  0, 15.9795688143396, 0,                 !- X,Y,Z Vertex 2 {m}
  6.46578440716979, 15.9795688143396, 0,  !- X,Y,Z Vertex 3 {m}
  6.46578440716979, 3.048, 0;             !- X,Y,Z Vertex 4 {m}

OS:Surface,
  {d9ca8904-1626-4f1a-be37-1ed510c3752a}, !- Handle
  Surface 8,                              !- Name
  Wall,                                   !- Surface Type
  ,                                       !- Construction Name
  {7581a539-4321-4f04-81a4-7f4c6f7e6579}, !- Space Name
  Outdoors,                               !- Outside Boundary Condition
  ,                                       !- Outside Boundary Condition Object
  SunExposed,                             !- Sun Exposure
  WindExposed,                            !- Wind Exposure
  ,                                       !- View Factor to Ground
  ,                                       !- Number of Vertices
  0, 15.9795688143396, 2.4384,            !- X,Y,Z Vertex 1 {m}
  0, 15.9795688143396, 0,                 !- X,Y,Z Vertex 2 {m}
  0, 3.048, 0,                            !- X,Y,Z Vertex 3 {m}
  0, 3.048, 2.4384;                       !- X,Y,Z Vertex 4 {m}

OS:Surface,
  {0a55d073-5d26-4619-a886-ea695d1272a0}, !- Handle
  Surface 9,                              !- Name
  Wall,                                   !- Surface Type
  ,                                       !- Construction Name
  {7581a539-4321-4f04-81a4-7f4c6f7e6579}, !- Space Name
  Outdoors,                               !- Outside Boundary Condition
  ,                                       !- Outside Boundary Condition Object
  SunExposed,                             !- Sun Exposure
  WindExposed,                            !- Wind Exposure
  ,                                       !- View Factor to Ground
  ,                                       !- Number of Vertices
  6.46578440716979, 15.9795688143396, 2.4384, !- X,Y,Z Vertex 1 {m}
  6.46578440716979, 15.9795688143396, 0,  !- X,Y,Z Vertex 2 {m}
  0, 15.9795688143396, 0,                 !- X,Y,Z Vertex 3 {m}
  0, 15.9795688143396, 2.4384;            !- X,Y,Z Vertex 4 {m}

OS:Surface,
  {957764d0-5f95-4227-ab3f-8e18c1352fdf}, !- Handle
  Surface 10,                             !- Name
  Wall,                                   !- Surface Type
  ,                                       !- Construction Name
  {7581a539-4321-4f04-81a4-7f4c6f7e6579}, !- Space Name
  Surface,                                !- Outside Boundary Condition
  {9603b242-2b11-4d9f-95d6-3e8a2e8e7704}, !- Outside Boundary Condition Object
  NoSun,                                  !- Sun Exposure
  NoWind,                                 !- Wind Exposure
  ,                                       !- View Factor to Ground
  ,                                       !- Number of Vertices
  6.46578440716979, 3.048, 2.4384,        !- X,Y,Z Vertex 1 {m}
  6.46578440716979, 3.048, 0,             !- X,Y,Z Vertex 2 {m}
  6.46578440716979, 15.9795688143396, 0,  !- X,Y,Z Vertex 3 {m}
  6.46578440716979, 15.9795688143396, 2.4384; !- X,Y,Z Vertex 4 {m}

OS:Surface,
  {6b8b9212-d886-4e94-a042-028bc489e490}, !- Handle
  Surface 11,                             !- Name
  Wall,                                   !- Surface Type
  ,                                       !- Construction Name
  {7581a539-4321-4f04-81a4-7f4c6f7e6579}, !- Space Name
  Adiabatic,                              !- Outside Boundary Condition
  ,                                       !- Outside Boundary Condition Object
  NoSun,                                  !- Sun Exposure
  NoWind,                                 !- Wind Exposure
  ,                                       !- View Factor to Ground
  ,                                       !- Number of Vertices
  0, 3.048, 2.4384,                       !- X,Y,Z Vertex 1 {m}
  0, 3.048, 0,                            !- X,Y,Z Vertex 2 {m}
  6.46578440716979, 3.048, 0,             !- X,Y,Z Vertex 3 {m}
  6.46578440716979, 3.048, 2.4384;        !- X,Y,Z Vertex 4 {m}

OS:Surface,
  {b53e2bea-f104-43b5-bdaa-82935b84ad47}, !- Handle
  Surface 12,                             !- Name
  RoofCeiling,                            !- Surface Type
  ,                                       !- Construction Name
  {7581a539-4321-4f04-81a4-7f4c6f7e6579}, !- Space Name
  Outdoors,                               !- Outside Boundary Condition
  ,                                       !- Outside Boundary Condition Object
  SunExposed,                             !- Sun Exposure
  WindExposed,                            !- Wind Exposure
  ,                                       !- View Factor to Ground
  ,                                       !- Number of Vertices
  6.46578440716979, 3.048, 2.4384,        !- X,Y,Z Vertex 1 {m}
  6.46578440716979, 15.9795688143396, 2.4384, !- X,Y,Z Vertex 2 {m}
  0, 15.9795688143396, 2.4384,            !- X,Y,Z Vertex 3 {m}
  0, 3.048, 2.4384;                       !- X,Y,Z Vertex 4 {m}

OS:ThermalZone,
  {3a35bcec-22b3-4ede-a4c1-7be092e59fd8}, !- Handle
  living zone|unit 3,                     !- Name
  ,                                       !- Multiplier
  ,                                       !- Ceiling Height {m}
  ,                                       !- Volume {m3}
  ,                                       !- Floor Area {m2}
  ,                                       !- Zone Inside Convection Algorithm
  ,                                       !- Zone Outside Convection Algorithm
  ,                                       !- Zone Conditioning Equipment List Name
  {b3d653d0-50c8-4451-a600-426a8cd30d42}, !- Zone Air Inlet Port List
  {fb4a4b69-4761-47b5-a685-025125a8b39e}, !- Zone Air Exhaust Port List
  {3cf8dc85-0617-4f0e-905e-8b4d47199450}, !- Zone Air Node Name
  {6840e722-b43a-4944-bb2c-d4e6c2a1381e}, !- Zone Return Air Port List
  ,                                       !- Primary Daylighting Control Name
  ,                                       !- Fraction of Zone Controlled by Primary Daylighting Control
  ,                                       !- Secondary Daylighting Control Name
  ,                                       !- Fraction of Zone Controlled by Secondary Daylighting Control
  ,                                       !- Illuminance Map Name
  ,                                       !- Group Rendering Name
  ,                                       !- Thermostat Name
  No;                                     !- Use Ideal Air Loads

OS:Node,
  {d5c4c333-73a4-4ffb-99a0-32a875894428}, !- Handle
  Node 3,                                 !- Name
  {3cf8dc85-0617-4f0e-905e-8b4d47199450}, !- Inlet Port
  ;                                       !- Outlet Port

OS:Connection,
  {3cf8dc85-0617-4f0e-905e-8b4d47199450}, !- Handle
  {e8e37e64-6033-446b-858e-4c62af58f207}, !- Name
  {3a35bcec-22b3-4ede-a4c1-7be092e59fd8}, !- Source Object
  11,                                     !- Outlet Port
  {d5c4c333-73a4-4ffb-99a0-32a875894428}, !- Target Object
  2;                                      !- Inlet Port

OS:PortList,
  {b3d653d0-50c8-4451-a600-426a8cd30d42}, !- Handle
  {992f2e3e-5f7f-4b35-a3b0-e2468f141583}, !- Name
  {3a35bcec-22b3-4ede-a4c1-7be092e59fd8}; !- HVAC Component

OS:PortList,
  {fb4a4b69-4761-47b5-a685-025125a8b39e}, !- Handle
  {6f6ecce2-7d0c-4273-b725-55511ac62ba9}, !- Name
  {3a35bcec-22b3-4ede-a4c1-7be092e59fd8}; !- HVAC Component

OS:PortList,
  {6840e722-b43a-4944-bb2c-d4e6c2a1381e}, !- Handle
  {168001a6-abb2-4fc8-9c26-d5dc5ab7831f}, !- Name
  {3a35bcec-22b3-4ede-a4c1-7be092e59fd8}; !- HVAC Component

OS:Sizing:Zone,
  {d4bb542e-8197-4126-a9ef-6c0e328ec6be}, !- Handle
  {3a35bcec-22b3-4ede-a4c1-7be092e59fd8}, !- Zone or ZoneList Name