!- NOTE: Auto-generated from /test/osw_files/MF_8units_1story_SL_Denver_Windows_Doors.osw

OS:Version,
  {bdfb99e2-f24d-4f11-b61f-0e36ebf9df45}, !- Handle
  2.8.0;                                  !- Version Identifier

OS:SimulationControl,
  {b74005c6-ff8f-4ae4-b0d9-decfaa0255e5}, !- Handle
  ,                                       !- Do Zone Sizing Calculation
  ,                                       !- Do System Sizing Calculation
  ,                                       !- Do Plant Sizing Calculation
  No;                                     !- Run Simulation for Sizing Periods

OS:Timestep,
  {bb3e6382-b9d2-404e-a080-29e4e24139c4}, !- Handle
  6;                                      !- Number of Timesteps per Hour

OS:ShadowCalculation,
  {4217c36d-7caa-447d-b7da-f87f47817955}, !- Handle
  20,                                     !- Calculation Frequency
  200;                                    !- Maximum Figures in Shadow Overlap Calculations

OS:SurfaceConvectionAlgorithm:Outside,
  {e98ae456-3b86-4a2a-871a-3360911e1cf7}, !- Handle
  DOE-2;                                  !- Algorithm

OS:SurfaceConvectionAlgorithm:Inside,
  {f02cc4d4-b15b-4d6b-8339-09c401969aac}, !- Handle
  TARP;                                   !- Algorithm

OS:ZoneCapacitanceMultiplier:ResearchSpecial,
  {69be92f1-da40-4604-97f9-c8dbff0fec96}, !- Handle
  ,                                       !- Temperature Capacity Multiplier
  15,                                     !- Humidity Capacity Multiplier
  ;                                       !- Carbon Dioxide Capacity Multiplier

OS:RunPeriod,
  {fa9fe05b-f0ce-4612-8917-ea2f05814816}, !- Handle
  Run Period 1,                           !- Name
  1,                                      !- Begin Month
  1,                                      !- Begin Day of Month
  12,                                     !- End Month
  31,                                     !- End Day of Month
  ,                                       !- Use Weather File Holidays and Special Days
  ,                                       !- Use Weather File Daylight Saving Period
  ,                                       !- Apply Weekend Holiday Rule
  ,                                       !- Use Weather File Rain Indicators
  ,                                       !- Use Weather File Snow Indicators
  ;                                       !- Number of Times Runperiod to be Repeated

OS:YearDescription,
  {9eda338d-0075-4197-bca4-1c9f288f12e0}, !- Handle
  2007,                                   !- Calendar Year
  ,                                       !- Day of Week for Start Day
  ;                                       !- Is Leap Year

OS:ThermalZone,
  {a36d13ca-dccb-4ece-b880-e82c7e238e12}, !- Handle
  living zone,                            !- Name
  ,                                       !- Multiplier
  ,                                       !- Ceiling Height {m}
  ,                                       !- Volume {m3}
  ,                                       !- Floor Area {m2}
  ,                                       !- Zone Inside Convection Algorithm
  ,                                       !- Zone Outside Convection Algorithm
  ,                                       !- Zone Conditioning Equipment List Name
  {aaaca4a0-f15a-4fb2-b271-204d14d11b58}, !- Zone Air Inlet Port List
  {c3897916-e917-411d-83db-8f591ddb6e55}, !- Zone Air Exhaust Port List
  {221cf560-4ded-423c-9c72-3432159b9d4a}, !- Zone Air Node Name
  {14cc21c4-4306-4f05-a1bd-5743a84e7727}, !- Zone Return Air Port List
  ,                                       !- Primary Daylighting Control Name
  ,                                       !- Fraction of Zone Controlled by Primary Daylighting Control
  ,                                       !- Secondary Daylighting Control Name
  ,                                       !- Fraction of Zone Controlled by Secondary Daylighting Control
  ,                                       !- Illuminance Map Name
  ,                                       !- Group Rendering Name
  ,                                       !- Thermostat Name
  No;                                     !- Use Ideal Air Loads

OS:Node,
  {410674c0-976b-46ee-8a6a-e6015ec2ce4a}, !- Handle
  Node 1,                                 !- Name
  {221cf560-4ded-423c-9c72-3432159b9d4a}, !- Inlet Port
  ;                                       !- Outlet Port

OS:Connection,
  {221cf560-4ded-423c-9c72-3432159b9d4a}, !- Handle
  {0f989d6e-b54c-4d9e-afdc-a61b0f283689}, !- Name
  {a36d13ca-dccb-4ece-b880-e82c7e238e12}, !- Source Object
  11,                                     !- Outlet Port
  {410674c0-976b-46ee-8a6a-e6015ec2ce4a}, !- Target Object
  2;                                      !- Inlet Port

OS:PortList,
  {aaaca4a0-f15a-4fb2-b271-204d14d11b58}, !- Handle
  {80540008-4d0c-44c7-856d-c219b8ac6aa4}, !- Name
  {a36d13ca-dccb-4ece-b880-e82c7e238e12}; !- HVAC Component

OS:PortList,
  {c3897916-e917-411d-83db-8f591ddb6e55}, !- Handle
  {053e7e2d-3876-492f-9536-c45265ca5ebb}, !- Name
  {a36d13ca-dccb-4ece-b880-e82c7e238e12}; !- HVAC Component

OS:PortList,
  {14cc21c4-4306-4f05-a1bd-5743a84e7727}, !- Handle
  {fbad6a22-9931-492f-8f0a-7359da33e077}, !- Name
  {a36d13ca-dccb-4ece-b880-e82c7e238e12}; !- HVAC Component

OS:Sizing:Zone,
  {b6adab12-d655-41f8-a359-0d8d62e1c561}, !- Handle
  {a36d13ca-dccb-4ece-b880-e82c7e238e12}, !- Zone or ZoneList Name
  SupplyAirTemperature,                   !- Zone Cooling Design Supply Air Temperature Input Method
  14,                                     !- Zone Cooling Design Supply Air Temperature {C}
  11.11,                                  !- Zone Cooling Design Supply Air Temperature Difference {deltaC}
  SupplyAirTemperature,                   !- Zone Heating Design Supply Air Temperature Input Method
  40,                                     !- Zone Heating Design Supply Air Temperature {C}
  11.11,                                  !- Zone Heating Design Supply Air Temperature Difference {deltaC}
  0.0085,                                 !- Zone Cooling Design Supply Air Humidity Ratio {kg-H2O/kg-air}
  0.008,                                  !- Zone Heating Design Supply Air Humidity Ratio {kg-H2O/kg-air}
  ,                                       !- Zone Heating Sizing Factor
  ,                                       !- Zone Cooling Sizing Factor
  DesignDay,                              !- Cooling Design Air Flow Method
  ,                                       !- Cooling Design Air Flow Rate {m3/s}
  ,                                       !- Cooling Minimum Air Flow per Zone Floor Area {m3/s-m2}
  ,                                       !- Cooling Minimum Air Flow {m3/s}
  ,                                       !- Cooling Minimum Air Flow Fraction
  DesignDay,                              !- Heating Design Air Flow Method
  ,                                       !- Heating Design Air Flow Rate {m3/s}
  ,                                       !- Heating Maximum Air Flow per Zone Floor Area {m3/s-m2}
  ,                                       !- Heating Maximum Air Flow {m3/s}
  ,                                       !- Heating Maximum Air Flow Fraction
  ,                                       !- Design Zone Air Distribution Effectiveness in Cooling Mode
  ,                                       !- Design Zone Air Distribution Effectiveness in Heating Mode
  No,                                     !- Account for Dedicated Outdoor Air System
  NeutralSupplyAir,                       !- Dedicated Outdoor Air System Control Strategy
  autosize,                               !- Dedicated Outdoor Air Low Setpoint Temperature for Design {C}
  autosize;                               !- Dedicated Outdoor Air High Setpoint Temperature for Design {C}

OS:ZoneHVAC:EquipmentList,
  {c449668f-cedc-4898-861a-865597769eb3}, !- Handle
  Zone HVAC Equipment List 1,             !- Name
  {a36d13ca-dccb-4ece-b880-e82c7e238e12}; !- Thermal Zone

OS:Space,
  {bdc9cc31-9421-470b-b2a8-69a2dc52d1f5}, !- Handle
  living space,                           !- Name
  {dafab5a7-024e-4c03-aeec-26dcf79000ba}, !- Space Type Name
  ,                                       !- Default Construction Set Name
  ,                                       !- Default Schedule Set Name
  ,                                       !- Direction of Relative North {deg}
  ,                                       !- X Origin {m}
  ,                                       !- Y Origin {m}
  ,                                       !- Z Origin {m}
  ,                                       !- Building Story Name
  {a36d13ca-dccb-4ece-b880-e82c7e238e12}, !- Thermal Zone Name
  ,                                       !- Part of Total Floor Area
  ,                                       !- Design Specification Outdoor Air Object Name
  {7c65f873-61ab-4fa2-8a9f-72291138e46e}; !- Building Unit Name

OS:Surface,
  {b86d0bf6-012a-4ff4-a859-d162ed143dc8}, !- Handle
  Surface 1,                              !- Name
  Floor,                                  !- Surface Type
  ,                                       !- Construction Name
  {bdc9cc31-9421-470b-b2a8-69a2dc52d1f5}, !- Space Name
  Foundation,                             !- Outside Boundary Condition
  ,                                       !- Outside Boundary Condition Object
  NoSun,                                  !- Sun Exposure
  NoWind,                                 !- Wind Exposure
  ,                                       !- View Factor to Ground
  ,                                       !- Number of Vertices
  0, -12.9315688143396, 0,                !- X,Y,Z Vertex 1 {m}
  0, 0, 0,                                !- X,Y,Z Vertex 2 {m}
  6.46578440716979, 0, 0,                 !- X,Y,Z Vertex 3 {m}
  6.46578440716979, -12.9315688143396, 0; !- X,Y,Z Vertex 4 {m}

OS:Surface,
  {8e90e905-3b78-4751-8e02-ff74e514edd4}, !- Handle
  Surface 2,                              !- Name
  Wall,                                   !- Surface Type
  ,                                       !- Construction Name
  {bdc9cc31-9421-470b-b2a8-69a2dc52d1f5}, !- Space Name
  Outdoors,                               !- Outside Boundary Condition
  ,                                       !- Outside Boundary Condition Object
  SunExposed,                             !- Sun Exposure
  WindExposed,                            !- Wind Exposure
  ,                                       !- View Factor to Ground
  ,                                       !- Number of Vertices
  0, 0, 2.4384,                           !- X,Y,Z Vertex 1 {m}
  0, 0, 0,                                !- X,Y,Z Vertex 2 {m}
  0, -12.9315688143396, 0,                !- X,Y,Z Vertex 3 {m}
  0, -12.9315688143396, 2.4384;           !- X,Y,Z Vertex 4 {m}

OS:Surface,
  {dce38821-034a-4292-9a66-7bbd4dfabd69}, !- Handle
  Surface 3,                              !- Name
  Wall,                                   !- Surface Type
  ,                                       !- Construction Name
  {bdc9cc31-9421-470b-b2a8-69a2dc52d1f5}, !- Space Name
  Adiabatic,                              !- Outside Boundary Condition
  ,                                       !- Outside Boundary Condition Object
  NoSun,                                  !- Sun Exposure
  NoWind,                                 !- Wind Exposure
  ,                                       !- View Factor to Ground
  ,                                       !- Number of Vertices
  6.46578440716979, 0, 2.4384,            !- X,Y,Z Vertex 1 {m}
  6.46578440716979, 0, 0,                 !- X,Y,Z Vertex 2 {m}
  0, 0, 0,                                !- X,Y,Z Vertex 3 {m}
  0, 0, 2.4384;                           !- X,Y,Z Vertex 4 {m}

OS:Surface,
  {9ead1480-2f03-4cf1-9c80-2f7958ce9307}, !- Handle
  Surface 4,                              !- Name
  Wall,                                   !- Surface Type
  ,                                       !- Construction Name
  {bdc9cc31-9421-470b-b2a8-69a2dc52d1f5}, !- Space Name
  Surface,                                !- Outside Boundary Condition
  {f13b5f3e-043c-4084-9136-8a82c4f9f288}, !- Outside Boundary Condition Object
  NoSun,                                  !- Sun Exposure
  NoWind,                                 !- Wind Exposure
  ,                                       !- View Factor to Ground
  ,                                       !- Number of Vertices
  6.46578440716979, -12.9315688143396, 2.4384, !- X,Y,Z Vertex 1 {m}
  6.46578440716979, -12.9315688143396, 0, !- X,Y,Z Vertex 2 {m}
  6.46578440716979, 0, 0,                 !- X,Y,Z Vertex 3 {m}
  6.46578440716979, 0, 2.4384;            !- X,Y,Z Vertex 4 {m}

OS:Surface,
  {6b936b17-9f48-461b-9132-d16103cffd97}, !- Handle
  Surface 5,                              !- Name
  Wall,                                   !- Surface Type
  ,                                       !- Construction Name
  {bdc9cc31-9421-470b-b2a8-69a2dc52d1f5}, !- Space Name
  Outdoors,                               !- Outside Boundary Condition
  ,                                       !- Outside Boundary Condition Object
  SunExposed,                             !- Sun Exposure
  WindExposed,                            !- Wind Exposure
  ,                                       !- View Factor to Ground
  ,                                       !- Number of Vertices
  0, -12.9315688143396, 2.4384,           !- X,Y,Z Vertex 1 {m}
  0, -12.9315688143396, 0,                !- X,Y,Z Vertex 2 {m}
  6.46578440716979, -12.9315688143396, 0, !- X,Y,Z Vertex 3 {m}
  6.46578440716979, -12.9315688143396, 2.4384; !- X,Y,Z Vertex 4 {m}

OS:Surface,
  {0a1a3151-0365-4d75-8606-4451d778f8c0}, !- Handle
  Surface 6,                              !- Name
  RoofCeiling,                            !- Surface Type
  ,                                       !- Construction Name
  {bdc9cc31-9421-470b-b2a8-69a2dc52d1f5}, !- Space Name
  Outdoors,                               !- Outside Boundary Condition
  ,                                       !- Outside Boundary Condition Object
  SunExposed,                             !- Sun Exposure
  WindExposed,                            !- Wind Exposure
  ,                                       !- View Factor to Ground
  ,                                       !- Number of Vertices
  6.46578440716979, -12.9315688143396, 2.4384, !- X,Y,Z Vertex 1 {m}
  6.46578440716979, 0, 2.4384,            !- X,Y,Z Vertex 2 {m}
  0, 0, 2.4384,                           !- X,Y,Z Vertex 3 {m}
  0, -12.9315688143396, 2.4384;           !- X,Y,Z Vertex 4 {m}

OS:SpaceType,
  {dafab5a7-024e-4c03-aeec-26dcf79000ba}, !- Handle
  Space Type 1,                           !- Name
  ,                                       !- Default Construction Set Name
  ,                                       !- Default Schedule Set Name
  ,                                       !- Group Rendering Name
  ,                                       !- Design Specification Outdoor Air Object Name
  ,                                       !- Standards Template
  ,                                       !- Standards Building Type
  living;                                 !- Standards Space Type

OS:ThermalZone,
  {0303725d-b9fe-4d2d-a3ad-961026360f7f}, !- Handle
  living zone|unit 2,                     !- Name
  ,                                       !- Multiplier
  ,                                       !- Ceiling Height {m}
  ,                                       !- Volume {m3}
  ,                                       !- Floor Area {m2}
  ,                                       !- Zone Inside Convection Algorithm
  ,                                       !- Zone Outside Convection Algorithm
  ,                                       !- Zone Conditioning Equipment List Name
  {ac974865-38af-4ae2-bd0f-bc59e246befc}, !- Zone Air Inlet Port List
  {b30db5c5-46ee-4046-bcd9-384a28b90b7c}, !- Zone Air Exhaust Port List
  {e3c482cb-dfa8-4271-bbdf-d0f385c17541}, !- Zone Air Node Name
  {ed686daf-ab8e-41ca-95ad-1b20c03b2593}, !- Zone Return Air Port List
  ,                                       !- Primary Daylighting Control Name
  ,                                       !- Fraction of Zone Controlled by Primary Daylighting Control
  ,                                       !- Secondary Daylighting Control Name
  ,                                       !- Fraction of Zone Controlled by Secondary Daylighting Control
  ,                                       !- Illuminance Map Name
  ,                                       !- Group Rendering Name
  ,                                       !- Thermostat Name
  No;                                     !- Use Ideal Air Loads

OS:Node,
  {b333915f-8081-4060-a5f1-9962d864099b}, !- Handle
  Node 2,                                 !- Name
  {e3c482cb-dfa8-4271-bbdf-d0f385c17541}, !- Inlet Port
  ;                                       !- Outlet Port

OS:Connection,
  {e3c482cb-dfa8-4271-bbdf-d0f385c17541}, !- Handle
  {96ad95c8-4996-4347-8877-d7feb644bc3e}, !- Name
  {0303725d-b9fe-4d2d-a3ad-961026360f7f}, !- Source Object
  11,                                     !- Outlet Port
  {b333915f-8081-4060-a5f1-9962d864099b}, !- Target Object
  2;                                      !- Inlet Port

OS:PortList,
  {ac974865-38af-4ae2-bd0f-bc59e246befc}, !- Handle
  {5434417a-0656-44b3-8512-483346dff939}, !- Name
  {0303725d-b9fe-4d2d-a3ad-961026360f7f}; !- HVAC Component

OS:PortList,
  {b30db5c5-46ee-4046-bcd9-384a28b90b7c}, !- Handle
  {1291301e-8532-42b4-ae50-6a45d82dd77e}, !- Name
  {0303725d-b9fe-4d2d-a3ad-961026360f7f}; !- HVAC Component

OS:PortList,
  {ed686daf-ab8e-41ca-95ad-1b20c03b2593}, !- Handle
  {55711173-31fe-4a5d-8677-988733aba423}, !- Name
  {0303725d-b9fe-4d2d-a3ad-961026360f7f}; !- HVAC Component

OS:Sizing:Zone,
  {e3db862f-b01a-44f3-bff7-7e65d1d409b7}, !- Handle
  {0303725d-b9fe-4d2d-a3ad-961026360f7f}, !- Zone or ZoneList Name
  SupplyAirTemperature,                   !- Zone Cooling Design Supply Air Temperature Input Method
  14,                                     !- Zone Cooling Design Supply Air Temperature {C}
  11.11,                                  !- Zone Cooling Design Supply Air Temperature Difference {deltaC}
  SupplyAirTemperature,                   !- Zone Heating Design Supply Air Temperature Input Method
  40,                                     !- Zone Heating Design Supply Air Temperature {C}
  11.11,                                  !- Zone Heating Design Supply Air Temperature Difference {deltaC}
  0.0085,                                 !- Zone Cooling Design Supply Air Humidity Ratio {kg-H2O/kg-air}
  0.008,                                  !- Zone Heating Design Supply Air Humidity Ratio {kg-H2O/kg-air}
  ,                                       !- Zone Heating Sizing Factor
  ,                                       !- Zone Cooling Sizing Factor
  DesignDay,                              !- Cooling Design Air Flow Method
  ,                                       !- Cooling Design Air Flow Rate {m3/s}
  ,                                       !- Cooling Minimum Air Flow per Zone Floor Area {m3/s-m2}
  ,                                       !- Cooling Minimum Air Flow {m3/s}
  ,                                       !- Cooling Minimum Air Flow Fraction
  DesignDay,                              !- Heating Design Air Flow Method
  ,                                       !- Heating Design Air Flow Rate {m3/s}
  ,                                       !- Heating Maximum Air Flow per Zone Floor Area {m3/s-m2}
  ,                                       !- Heating Maximum Air Flow {m3/s}
  ,                                       !- Heating Maximum Air Flow Fraction
  ,                                       !- Design Zone Air Distribution Effectiveness in Cooling Mode
  ,                                       !- Design Zone Air Distribution Effectiveness in Heating Mode
  No,                                     !- Account for Dedicated Outdoor Air System
  NeutralSupplyAir,                       !- Dedicated Outdoor Air System Control Strategy
  autosize,                               !- Dedicated Outdoor Air Low Setpoint Temperature for Design {C}
  autosize;                               !- Dedicated Outdoor Air High Setpoint Temperature for Design {C}

OS:ZoneHVAC:EquipmentList,
  {76ae2aab-4130-4203-8b4e-a4c2d517e36b}, !- Handle
  Zone HVAC Equipment List 2,             !- Name
  {0303725d-b9fe-4d2d-a3ad-961026360f7f}; !- Thermal Zone

OS:Space,
  {dcec89c3-3cd3-4b50-b61a-1a61869e8553}, !- Handle
  living space|unit 2,                    !- Name
  {dafab5a7-024e-4c03-aeec-26dcf79000ba}, !- Space Type Name
  ,                                       !- Default Construction Set Name
  ,                                       !- Default Schedule Set Name
  ,                                       !- Direction of Relative North {deg}
  ,                                       !- X Origin {m}
  ,                                       !- Y Origin {m}
  ,                                       !- Z Origin {m}
  ,                                       !- Building Story Name
  {0303725d-b9fe-4d2d-a3ad-961026360f7f}, !- Thermal Zone Name
  ,                                       !- Part of Total Floor Area
  ,                                       !- Design Specification Outdoor Air Object Name
  {53c867e3-e05b-4ed2-b9fe-d49a09442662}; !- Building Unit Name

OS:Surface,
  {d20f3319-2e6e-48f4-85ec-7788b1580b0c}, !- Handle
  Surface 7,                              !- Name
  Floor,                                  !- Surface Type
  ,                                       !- Construction Name
  {dcec89c3-3cd3-4b50-b61a-1a61869e8553}, !- Space Name
  Foundation,                             !- Outside Boundary Condition
  ,                                       !- Outside Boundary Condition Object
  NoSun,                                  !- Sun Exposure
  NoWind,                                 !- Wind Exposure
  ,                                       !- View Factor to Ground
  ,                                       !- Number of Vertices
  0, 3.048, 0,                            !- X,Y,Z Vertex 1 {m}
  0, 15.9795688143396, 0,                 !- X,Y,Z Vertex 2 {m}
  6.46578440716979, 15.9795688143396, 0,  !- X,Y,Z Vertex 3 {m}
  6.46578440716979, 3.048, 0;             !- X,Y,Z Vertex 4 {m}

OS:Surface,
  {c3fc8537-76bf-4d07-8759-ba285a2a5c27}, !- Handle
  Surface 8,                              !- Name
  Wall,                                   !- Surface Type
  ,                                       !- Construction Name
  {dcec89c3-3cd3-4b50-b61a-1a61869e8553}, !- Space Name
  Outdoors,                               !- Outside Boundary Condition
  ,                                       !- Outside Boundary Condition Object
  SunExposed,                             !- Sun Exposure
  WindExposed,                            !- Wind Exposure
  ,                                       !- View Factor to Ground
  ,                                       !- Number of Vertices
  0, 15.9795688143396, 2.4384,            !- X,Y,Z Vertex 1 {m}
  0, 15.9795688143396, 0,                 !- X,Y,Z Vertex 2 {m}
  0, 3.048, 0,                            !- X,Y,Z Vertex 3 {m}
  0, 3.048, 2.4384;                       !- X,Y,Z Vertex 4 {m}

OS:Surface,
  {a33c1fbd-dacb-4bf2-b1bf-a2b0db1c9a11}, !- Handle
  Surface 9,                              !- Name
  Wall,                                   !- Surface Type
  ,                                       !- Construction Name
  {dcec89c3-3cd3-4b50-b61a-1a61869e8553}, !- Space Name
  Outdoors,                               !- Outside Boundary Condition
  ,                                       !- Outside Boundary Condition Object
  SunExposed,                             !- Sun Exposure
  WindExposed,                            !- Wind Exposure
  ,                                       !- View Factor to Ground
  ,                                       !- Number of Vertices
  6.46578440716979, 15.9795688143396, 2.4384, !- X,Y,Z Vertex 1 {m}
  6.46578440716979, 15.9795688143396, 0,  !- X,Y,Z Vertex 2 {m}
  0, 15.9795688143396, 0,                 !- X,Y,Z Vertex 3 {m}
  0, 15.9795688143396, 2.4384;            !- X,Y,Z Vertex 4 {m}

OS:Surface,
  {10be005a-ee45-4fa5-8c25-3f60fa58b6d2}, !- Handle
  Surface 10,                             !- Name
  Wall,                                   !- Surface Type
  ,                                       !- Construction Name
  {dcec89c3-3cd3-4b50-b61a-1a61869e8553}, !- Space Name
  Surface,                                !- Outside Boundary Condition
  {4eb77b9f-66e4-4ba6-a5f3-c963ed6f5c66}, !- Outside Boundary Condition Object
  NoSun,                                  !- Sun Exposure
  NoWind,                                 !- Wind Exposure
  ,                                       !- View Factor to Ground
  ,                                       !- Number of Vertices
  6.46578440716979, 3.048, 2.4384,        !- X,Y,Z Vertex 1 {m}
  6.46578440716979, 3.048, 0,             !- X,Y,Z Vertex 2 {m}
  6.46578440716979, 15.9795688143396, 0,  !- X,Y,Z Vertex 3 {m}
  6.46578440716979, 15.9795688143396, 2.4384; !- X,Y,Z Vertex 4 {m}

OS:Surface,
  {804d37c8-21d1-42ae-a3e3-ea21df00c093}, !- Handle
  Surface 11,                             !- Name
  Wall,                                   !- Surface Type
  ,                                       !- Construction Name
  {dcec89c3-3cd3-4b50-b61a-1a61869e8553}, !- Space Name
  Adiabatic,                              !- Outside Boundary Condition
  ,                                       !- Outside Boundary Condition Object
  NoSun,                                  !- Sun Exposure
  NoWind,                                 !- Wind Exposure
  ,                                       !- View Factor to Ground
  ,                                       !- Number of Vertices
  0, 3.048, 2.4384,                       !- X,Y,Z Vertex 1 {m}
  0, 3.048, 0,                            !- X,Y,Z Vertex 2 {m}
  6.46578440716979, 3.048, 0,             !- X,Y,Z Vertex 3 {m}
  6.46578440716979, 3.048, 2.4384;        !- X,Y,Z Vertex 4 {m}

OS:Surface,
  {87f437ad-c957-4359-8dad-fa5f25740c50}, !- Handle
  Surface 12,                             !- Name
  RoofCeiling,                            !- Surface Type
  ,                                       !- Construction Name
  {dcec89c3-3cd3-4b50-b61a-1a61869e8553}, !- Space Name
  Outdoors,                               !- Outside Boundary Condition
  ,                                       !- Outside Boundary Condition Object
  SunExposed,                             !- Sun Exposure
  WindExposed,                            !- Wind Exposure
  ,                                       !- View Factor to Ground
  ,                                       !- Number of Vertices
  6.46578440716979, 3.048, 2.4384,        !- X,Y,Z Vertex 1 {m}
  6.46578440716979, 15.9795688143396, 2.4384, !- X,Y,Z Vertex 2 {m}
  0, 15.9795688143396, 2.4384,            !- X,Y,Z Vertex 3 {m}
  0, 3.048, 2.4384;                       !- X,Y,Z Vertex 4 {m}

OS:ThermalZone,
  {190e934c-7f12-4ba7-bc43-f37c6fcbd2de}, !- Handle
  living zone|unit 3,                     !- Name
  ,                                       !- Multiplier
  ,                                       !- Ceiling Height {m}
  ,                                       !- Volume {m3}
  ,                                       !- Floor Area {m2}
  ,                                       !- Zone Inside Convection Algorithm
  ,                                       !- Zone Outside Convection Algorithm
  ,                                       !- Zone Conditioning Equipment List Name
  {05b82586-bc53-4718-bfcd-e9fdda72602f}, !- Zone Air Inlet Port List
  {0a56d141-4558-4a76-86dc-b79461054723}, !- Zone Air Exhaust Port List
  {694accb9-10d4-4b89-87e8-684a09c92d40}, !- Zone Air Node Name
  {60add923-4a9f-43e3-9d4a-e4c374cd20bf}, !- Zone Return Air Port List
  ,                                       !- Primary Daylighting Control Name
  ,                                       !- Fraction of Zone Controlled by Primary Daylighting Control
  ,                                       !- Secondary Daylighting Control Name
  ,                                       !- Fraction of Zone Controlled by Secondary Daylighting Control
  ,                                       !- Illuminance Map Name
  ,                                       !- Group Rendering Name
  ,                                       !- Thermostat Name
  No;                                     !- Use Ideal Air Loads

OS:Node,
  {83722d4c-72bb-45ea-9c9b-4f4e7a6fa45c}, !- Handle
  Node 3,                                 !- Name
  {694accb9-10d4-4b89-87e8-684a09c92d40}, !- Inlet Port
  ;                                       !- Outlet Port

OS:Connection,
  {694accb9-10d4-4b89-87e8-684a09c92d40}, !- Handle
  {73f8fd8f-9e4b-435f-b665-0bb99497811d}, !- Name
  {190e934c-7f12-4ba7-bc43-f37c6fcbd2de}, !- Source Object
  11,                                     !- Outlet Port
  {83722d4c-72bb-45ea-9c9b-4f4e7a6fa45c}, !- Target Object
  2;                                      !- Inlet Port

OS:PortList,
  {05b82586-bc53-4718-bfcd-e9fdda72602f}, !- Handle
  {2237bdde-74cc-4896-95c9-fe750908a832}, !- Name
  {190e934c-7f12-4ba7-bc43-f37c6fcbd2de}; !- HVAC Component

OS:PortList,
  {0a56d141-4558-4a76-86dc-b79461054723}, !- Handle
  {de043ec9-dc22-4785-aa4e-74a70fa46b84}, !- Name
  {190e934c-7f12-4ba7-bc43-f37c6fcbd2de}; !- HVAC Component

OS:PortList,
  {60add923-4a9f-43e3-9d4a-e4c374cd20bf}, !- Handle
  {df74c147-4daf-4713-b131-b1bf23f91e74}, !- Name
  {190e934c-7f12-4ba7-bc43-f37c6fcbd2de}; !- HVAC Component

OS:Sizing:Zone,
  {c24012d3-5112-4f52-9f69-4f459ffcf2b1}, !- Handle
  {190e934c-7f12-4ba7-bc43-f37c6fcbd2de}, !- Zone or ZoneList Name