!- NOTE: Auto-generated from /test/osw_files/MF_8units_1story_SL_3Beds_2Baths_Denver_WHTank.osw

OS:Version,
  {b8211a85-8493-4585-b518-76a123f3624f}, !- Handle
  2.8.1;                                  !- Version Identifier

OS:SimulationControl,
  {922a3573-77eb-4963-9bdc-bdf45b664889}, !- Handle
  ,                                       !- Do Zone Sizing Calculation
  ,                                       !- Do System Sizing Calculation
  ,                                       !- Do Plant Sizing Calculation
  No;                                     !- Run Simulation for Sizing Periods

OS:Timestep,
  {459587d7-cef7-4eeb-bb71-1a839a306646}, !- Handle
  6;                                      !- Number of Timesteps per Hour

OS:ShadowCalculation,
  {9d63f650-75e2-41cb-85d7-3cfb02c8d826}, !- Handle
  20,                                     !- Calculation Frequency
  200;                                    !- Maximum Figures in Shadow Overlap Calculations

OS:SurfaceConvectionAlgorithm:Outside,
  {e7484498-2620-4ac3-ac55-f0471a38122d}, !- Handle
  DOE-2;                                  !- Algorithm

OS:SurfaceConvectionAlgorithm:Inside,
  {2a179a89-4a27-4cee-bc32-aa23863e3def}, !- Handle
  TARP;                                   !- Algorithm

OS:ZoneCapacitanceMultiplier:ResearchSpecial,
  {ade516eb-6f43-4322-a1f9-f5303f851f60}, !- Handle
  ,                                       !- Temperature Capacity Multiplier
  15,                                     !- Humidity Capacity Multiplier
  ;                                       !- Carbon Dioxide Capacity Multiplier

OS:RunPeriod,
  {cb3f80d2-b67f-4398-a6ea-1a90614ec61d}, !- Handle
  Run Period 1,                           !- Name
  1,                                      !- Begin Month
  1,                                      !- Begin Day of Month
  12,                                     !- End Month
  31,                                     !- End Day of Month
  ,                                       !- Use Weather File Holidays and Special Days
  ,                                       !- Use Weather File Daylight Saving Period
  ,                                       !- Apply Weekend Holiday Rule
  ,                                       !- Use Weather File Rain Indicators
  ,                                       !- Use Weather File Snow Indicators
  ;                                       !- Number of Times Runperiod to be Repeated

OS:ThermalZone,
  {53c91484-9d75-4ed5-81c2-38ee3b9e69ff}, !- Handle
  living zone,                            !- Name
  ,                                       !- Multiplier
  ,                                       !- Ceiling Height {m}
  ,                                       !- Volume {m3}
  ,                                       !- Floor Area {m2}
  ,                                       !- Zone Inside Convection Algorithm
  ,                                       !- Zone Outside Convection Algorithm
  ,                                       !- Zone Conditioning Equipment List Name
  {ce7b5481-4b4c-4422-b867-5445930c8b80}, !- Zone Air Inlet Port List
  {a4ea5ac9-63bd-4e02-b513-405a52bc2030}, !- Zone Air Exhaust Port List
  {584054dd-e2c8-461c-bc99-4f2a15b4b664}, !- Zone Air Node Name
  {8da75de8-372f-40b6-844c-8fc2748c4108}, !- Zone Return Air Port List
  ,                                       !- Primary Daylighting Control Name
  ,                                       !- Fraction of Zone Controlled by Primary Daylighting Control
  ,                                       !- Secondary Daylighting Control Name
  ,                                       !- Fraction of Zone Controlled by Secondary Daylighting Control
  ,                                       !- Illuminance Map Name
  ,                                       !- Group Rendering Name
  ,                                       !- Thermostat Name
  No;                                     !- Use Ideal Air Loads

OS:Node,
  {cec27421-8d8e-4a45-a0d8-26be6b07c1a7}, !- Handle
  Node 1,                                 !- Name
  {584054dd-e2c8-461c-bc99-4f2a15b4b664}, !- Inlet Port
  ;                                       !- Outlet Port

OS:Connection,
  {584054dd-e2c8-461c-bc99-4f2a15b4b664}, !- Handle
  {64dc9b84-04fb-44db-a057-510741f61940}, !- Name
  {53c91484-9d75-4ed5-81c2-38ee3b9e69ff}, !- Source Object
  11,                                     !- Outlet Port
  {cec27421-8d8e-4a45-a0d8-26be6b07c1a7}, !- Target Object
  2;                                      !- Inlet Port

OS:PortList,
  {ce7b5481-4b4c-4422-b867-5445930c8b80}, !- Handle
  {f8313cf2-d9d0-474c-b859-237ce6e9b6b5}, !- Name
  {53c91484-9d75-4ed5-81c2-38ee3b9e69ff}; !- HVAC Component

OS:PortList,
  {a4ea5ac9-63bd-4e02-b513-405a52bc2030}, !- Handle
  {0ccc4db3-e055-4533-8f00-50698d11e18b}, !- Name
  {53c91484-9d75-4ed5-81c2-38ee3b9e69ff}; !- HVAC Component

OS:PortList,
  {8da75de8-372f-40b6-844c-8fc2748c4108}, !- Handle
  {d57a7fec-1aa0-47b0-9d8c-4d3a944dd67b}, !- Name
  {53c91484-9d75-4ed5-81c2-38ee3b9e69ff}; !- HVAC Component

OS:Sizing:Zone,
  {bc1beed0-85a2-4725-8c51-468b2438c135}, !- Handle
  {53c91484-9d75-4ed5-81c2-38ee3b9e69ff}, !- Zone or ZoneList Name
  SupplyAirTemperature,                   !- Zone Cooling Design Supply Air Temperature Input Method
  14,                                     !- Zone Cooling Design Supply Air Temperature {C}
  11.11,                                  !- Zone Cooling Design Supply Air Temperature Difference {deltaC}
  SupplyAirTemperature,                   !- Zone Heating Design Supply Air Temperature Input Method
  40,                                     !- Zone Heating Design Supply Air Temperature {C}
  11.11,                                  !- Zone Heating Design Supply Air Temperature Difference {deltaC}
  0.0085,                                 !- Zone Cooling Design Supply Air Humidity Ratio {kg-H2O/kg-air}
  0.008,                                  !- Zone Heating Design Supply Air Humidity Ratio {kg-H2O/kg-air}
  ,                                       !- Zone Heating Sizing Factor
  ,                                       !- Zone Cooling Sizing Factor
  DesignDay,                              !- Cooling Design Air Flow Method
  ,                                       !- Cooling Design Air Flow Rate {m3/s}
  ,                                       !- Cooling Minimum Air Flow per Zone Floor Area {m3/s-m2}
  ,                                       !- Cooling Minimum Air Flow {m3/s}
  ,                                       !- Cooling Minimum Air Flow Fraction
  DesignDay,                              !- Heating Design Air Flow Method
  ,                                       !- Heating Design Air Flow Rate {m3/s}
  ,                                       !- Heating Maximum Air Flow per Zone Floor Area {m3/s-m2}
  ,                                       !- Heating Maximum Air Flow {m3/s}
  ,                                       !- Heating Maximum Air Flow Fraction
  ,                                       !- Design Zone Air Distribution Effectiveness in Cooling Mode
  ,                                       !- Design Zone Air Distribution Effectiveness in Heating Mode
  No,                                     !- Account for Dedicated Outdoor Air System
  NeutralSupplyAir,                       !- Dedicated Outdoor Air System Control Strategy
  autosize,                               !- Dedicated Outdoor Air Low Setpoint Temperature for Design {C}
  autosize;                               !- Dedicated Outdoor Air High Setpoint Temperature for Design {C}

OS:ZoneHVAC:EquipmentList,
  {a7b7cb9b-29f6-4c65-ab48-4aa92413a7fc}, !- Handle
  Zone HVAC Equipment List 1,             !- Name
  {53c91484-9d75-4ed5-81c2-38ee3b9e69ff}; !- Thermal Zone

OS:Space,
  {d83ac333-29af-4581-aaa8-cfdaa437ece2}, !- Handle
  living space,                           !- Name
  {7e68bd19-3f38-4c0e-b672-a4ebe44b4585}, !- Space Type Name
  ,                                       !- Default Construction Set Name
  ,                                       !- Default Schedule Set Name
  ,                                       !- Direction of Relative North {deg}
  ,                                       !- X Origin {m}
  ,                                       !- Y Origin {m}
  ,                                       !- Z Origin {m}
  ,                                       !- Building Story Name
  {53c91484-9d75-4ed5-81c2-38ee3b9e69ff}, !- Thermal Zone Name
  ,                                       !- Part of Total Floor Area
  ,                                       !- Design Specification Outdoor Air Object Name
  {c806b43e-d0be-4929-b7ac-01a82df16afc}; !- Building Unit Name

OS:Surface,
  {ec386da8-a2eb-4fd4-a677-7fc751ff81aa}, !- Handle
  Surface 1,                              !- Name
  Floor,                                  !- Surface Type
  ,                                       !- Construction Name
  {d83ac333-29af-4581-aaa8-cfdaa437ece2}, !- Space Name
  Foundation,                             !- Outside Boundary Condition
  ,                                       !- Outside Boundary Condition Object
  NoSun,                                  !- Sun Exposure
  NoWind,                                 !- Wind Exposure
  ,                                       !- View Factor to Ground
  ,                                       !- Number of Vertices
  0, -12.9315688143396, 0,                !- X,Y,Z Vertex 1 {m}
  0, 0, 0,                                !- X,Y,Z Vertex 2 {m}
  6.46578440716979, 0, 0,                 !- X,Y,Z Vertex 3 {m}
  6.46578440716979, -12.9315688143396, 0; !- X,Y,Z Vertex 4 {m}

OS:Surface,
  {571f1083-77b5-426b-bf40-af4e4d3fb696}, !- Handle
  Surface 2,                              !- Name
  Wall,                                   !- Surface Type
  ,                                       !- Construction Name
  {d83ac333-29af-4581-aaa8-cfdaa437ece2}, !- Space Name
  Outdoors,                               !- Outside Boundary Condition
  ,                                       !- Outside Boundary Condition Object
  SunExposed,                             !- Sun Exposure
  WindExposed,                            !- Wind Exposure
  ,                                       !- View Factor to Ground
  ,                                       !- Number of Vertices
  0, 0, 2.4384,                           !- X,Y,Z Vertex 1 {m}
  0, 0, 0,                                !- X,Y,Z Vertex 2 {m}
  0, -12.9315688143396, 0,                !- X,Y,Z Vertex 3 {m}
  0, -12.9315688143396, 2.4384;           !- X,Y,Z Vertex 4 {m}

OS:Surface,
  {09cc8f52-4e71-4447-a2b6-fbfbb53d4f29}, !- Handle
  Surface 3,                              !- Name
  Wall,                                   !- Surface Type
  ,                                       !- Construction Name
  {d83ac333-29af-4581-aaa8-cfdaa437ece2}, !- Space Name
  Adiabatic,                              !- Outside Boundary Condition
  ,                                       !- Outside Boundary Condition Object
  NoSun,                                  !- Sun Exposure
  NoWind,                                 !- Wind Exposure
  ,                                       !- View Factor to Ground
  ,                                       !- Number of Vertices
  6.46578440716979, 0, 2.4384,            !- X,Y,Z Vertex 1 {m}
  6.46578440716979, 0, 0,                 !- X,Y,Z Vertex 2 {m}
  0, 0, 0,                                !- X,Y,Z Vertex 3 {m}
  0, 0, 2.4384;                           !- X,Y,Z Vertex 4 {m}

OS:Surface,
  {263f4781-06ce-460e-8360-007727ffb6ba}, !- Handle
  Surface 4,                              !- Name
  Wall,                                   !- Surface Type
  ,                                       !- Construction Name
  {d83ac333-29af-4581-aaa8-cfdaa437ece2}, !- Space Name
  Surface,                                !- Outside Boundary Condition
  {71ea0317-1113-4405-8f67-3958b124376f}, !- Outside Boundary Condition Object
  NoSun,                                  !- Sun Exposure
  NoWind,                                 !- Wind Exposure
  ,                                       !- View Factor to Ground
  ,                                       !- Number of Vertices
  6.46578440716979, -12.9315688143396, 2.4384, !- X,Y,Z Vertex 1 {m}
  6.46578440716979, -12.9315688143396, 0, !- X,Y,Z Vertex 2 {m}
  6.46578440716979, 0, 0,                 !- X,Y,Z Vertex 3 {m}
  6.46578440716979, 0, 2.4384;            !- X,Y,Z Vertex 4 {m}

OS:Surface,
  {5ea54dff-f921-4ecf-8c45-c2d4772c57f3}, !- Handle
  Surface 5,                              !- Name
  Wall,                                   !- Surface Type
  ,                                       !- Construction Name
  {d83ac333-29af-4581-aaa8-cfdaa437ece2}, !- Space Name
  Outdoors,                               !- Outside Boundary Condition
  ,                                       !- Outside Boundary Condition Object
  SunExposed,                             !- Sun Exposure
  WindExposed,                            !- Wind Exposure
  ,                                       !- View Factor to Ground
  ,                                       !- Number of Vertices
  0, -12.9315688143396, 2.4384,           !- X,Y,Z Vertex 1 {m}
  0, -12.9315688143396, 0,                !- X,Y,Z Vertex 2 {m}
  6.46578440716979, -12.9315688143396, 0, !- X,Y,Z Vertex 3 {m}
  6.46578440716979, -12.9315688143396, 2.4384; !- X,Y,Z Vertex 4 {m}

OS:Surface,
  {141412ab-6078-46c8-a844-54a05e27c00b}, !- Handle
  Surface 6,                              !- Name
  RoofCeiling,                            !- Surface Type
  ,                                       !- Construction Name
  {d83ac333-29af-4581-aaa8-cfdaa437ece2}, !- Space Name
  Outdoors,                               !- Outside Boundary Condition
  ,                                       !- Outside Boundary Condition Object
  SunExposed,                             !- Sun Exposure
  WindExposed,                            !- Wind Exposure
  ,                                       !- View Factor to Ground
  ,                                       !- Number of Vertices
  6.46578440716979, -12.9315688143396, 2.4384, !- X,Y,Z Vertex 1 {m}
  6.46578440716979, 0, 2.4384,            !- X,Y,Z Vertex 2 {m}
  0, 0, 2.4384,                           !- X,Y,Z Vertex 3 {m}
  0, -12.9315688143396, 2.4384;           !- X,Y,Z Vertex 4 {m}

OS:SpaceType,
  {7e68bd19-3f38-4c0e-b672-a4ebe44b4585}, !- Handle
  Space Type 1,                           !- Name
  ,                                       !- Default Construction Set Name
  ,                                       !- Default Schedule Set Name
  ,                                       !- Group Rendering Name
  ,                                       !- Design Specification Outdoor Air Object Name
  ,                                       !- Standards Template
  ,                                       !- Standards Building Type
  living;                                 !- Standards Space Type

OS:ThermalZone,
  {2ee12685-699d-48a4-9d7d-e1a2a08ef814}, !- Handle
  living zone|unit 2,                     !- Name
  ,                                       !- Multiplier
  ,                                       !- Ceiling Height {m}
  ,                                       !- Volume {m3}
  ,                                       !- Floor Area {m2}
  ,                                       !- Zone Inside Convection Algorithm
  ,                                       !- Zone Outside Convection Algorithm
  ,                                       !- Zone Conditioning Equipment List Name
  {df3c4921-8b92-4c6a-96cc-7b412efd09f6}, !- Zone Air Inlet Port List
  {a1e934f1-89d6-4216-9b2a-0cf93a3fc0f5}, !- Zone Air Exhaust Port List
  {ef1d480e-b407-4ae1-adba-69e698cdcfdd}, !- Zone Air Node Name
  {f3ff4256-41a9-42b2-8f5a-e907c34964b1}, !- Zone Return Air Port List
  ,                                       !- Primary Daylighting Control Name
  ,                                       !- Fraction of Zone Controlled by Primary Daylighting Control
  ,                                       !- Secondary Daylighting Control Name
  ,                                       !- Fraction of Zone Controlled by Secondary Daylighting Control
  ,                                       !- Illuminance Map Name
  ,                                       !- Group Rendering Name
  ,                                       !- Thermostat Name
  No;                                     !- Use Ideal Air Loads

OS:Node,
  {cf873918-3a3a-4709-bbae-0a53c1e43c00}, !- Handle
  Node 2,                                 !- Name
  {ef1d480e-b407-4ae1-adba-69e698cdcfdd}, !- Inlet Port
  ;                                       !- Outlet Port

OS:Connection,
  {ef1d480e-b407-4ae1-adba-69e698cdcfdd}, !- Handle
  {35dd2361-0e7e-400c-9329-841bb9d49740}, !- Name
  {2ee12685-699d-48a4-9d7d-e1a2a08ef814}, !- Source Object
  11,                                     !- Outlet Port
  {cf873918-3a3a-4709-bbae-0a53c1e43c00}, !- Target Object
  2;                                      !- Inlet Port

OS:PortList,
  {df3c4921-8b92-4c6a-96cc-7b412efd09f6}, !- Handle
  {4e4e9852-5c68-4b8b-9f0d-fbe343aaace4}, !- Name
  {2ee12685-699d-48a4-9d7d-e1a2a08ef814}; !- HVAC Component

OS:PortList,
  {a1e934f1-89d6-4216-9b2a-0cf93a3fc0f5}, !- Handle
  {15b48255-a3e1-4eb9-903d-f6d46d6bf9f0}, !- Name
  {2ee12685-699d-48a4-9d7d-e1a2a08ef814}; !- HVAC Component

OS:PortList,
  {f3ff4256-41a9-42b2-8f5a-e907c34964b1}, !- Handle
  {edc6188a-50a6-4019-a9bb-4a6b89cedf28}, !- Name
  {2ee12685-699d-48a4-9d7d-e1a2a08ef814}; !- HVAC Component

OS:Sizing:Zone,
  {78721a01-7b9d-4265-852c-356936d4ce23}, !- Handle
  {2ee12685-699d-48a4-9d7d-e1a2a08ef814}, !- Zone or ZoneList Name
  SupplyAirTemperature,                   !- Zone Cooling Design Supply Air Temperature Input Method
  14,                                     !- Zone Cooling Design Supply Air Temperature {C}
  11.11,                                  !- Zone Cooling Design Supply Air Temperature Difference {deltaC}
  SupplyAirTemperature,                   !- Zone Heating Design Supply Air Temperature Input Method
  40,                                     !- Zone Heating Design Supply Air Temperature {C}
  11.11,                                  !- Zone Heating Design Supply Air Temperature Difference {deltaC}
  0.0085,                                 !- Zone Cooling Design Supply Air Humidity Ratio {kg-H2O/kg-air}
  0.008,                                  !- Zone Heating Design Supply Air Humidity Ratio {kg-H2O/kg-air}
  ,                                       !- Zone Heating Sizing Factor
  ,                                       !- Zone Cooling Sizing Factor
  DesignDay,                              !- Cooling Design Air Flow Method
  ,                                       !- Cooling Design Air Flow Rate {m3/s}
  ,                                       !- Cooling Minimum Air Flow per Zone Floor Area {m3/s-m2}
  ,                                       !- Cooling Minimum Air Flow {m3/s}
  ,                                       !- Cooling Minimum Air Flow Fraction
  DesignDay,                              !- Heating Design Air Flow Method
  ,                                       !- Heating Design Air Flow Rate {m3/s}
  ,                                       !- Heating Maximum Air Flow per Zone Floor Area {m3/s-m2}
  ,                                       !- Heating Maximum Air Flow {m3/s}
  ,                                       !- Heating Maximum Air Flow Fraction
  ,                                       !- Design Zone Air Distribution Effectiveness in Cooling Mode
  ,                                       !- Design Zone Air Distribution Effectiveness in Heating Mode
  No,                                     !- Account for Dedicated Outdoor Air System
  NeutralSupplyAir,                       !- Dedicated Outdoor Air System Control Strategy
  autosize,                               !- Dedicated Outdoor Air Low Setpoint Temperature for Design {C}
  autosize;                               !- Dedicated Outdoor Air High Setpoint Temperature for Design {C}

OS:ZoneHVAC:EquipmentList,
  {e3c70b83-381c-47fa-a540-366ac7ec21ff}, !- Handle
  Zone HVAC Equipment List 2,             !- Name
  {2ee12685-699d-48a4-9d7d-e1a2a08ef814}; !- Thermal Zone

OS:Space,
  {2ca29cd1-8791-462b-bf85-ee11d6103e3f}, !- Handle
  living space|unit 2,                    !- Name
  {7e68bd19-3f38-4c0e-b672-a4ebe44b4585}, !- Space Type Name
  ,                                       !- Default Construction Set Name
  ,                                       !- Default Schedule Set Name
  ,                                       !- Direction of Relative North {deg}
  ,                                       !- X Origin {m}
  ,                                       !- Y Origin {m}
  ,                                       !- Z Origin {m}
  ,                                       !- Building Story Name
  {2ee12685-699d-48a4-9d7d-e1a2a08ef814}, !- Thermal Zone Name
  ,                                       !- Part of Total Floor Area
  ,                                       !- Design Specification Outdoor Air Object Name
  {3959b5ed-682b-43c8-9952-07c16873f83d}; !- Building Unit Name

OS:Surface,
  {bf1b3da5-ccba-43ab-8fa4-1eb85cca3835}, !- Handle
  Surface 7,                              !- Name
  Floor,                                  !- Surface Type
  ,                                       !- Construction Name
  {2ca29cd1-8791-462b-bf85-ee11d6103e3f}, !- Space Name
  Foundation,                             !- Outside Boundary Condition
  ,                                       !- Outside Boundary Condition Object
  NoSun,                                  !- Sun Exposure
  NoWind,                                 !- Wind Exposure
  ,                                       !- View Factor to Ground
  ,                                       !- Number of Vertices
  0, 3.048, 0,                            !- X,Y,Z Vertex 1 {m}
  0, 15.9795688143396, 0,                 !- X,Y,Z Vertex 2 {m}
  6.46578440716979, 15.9795688143396, 0,  !- X,Y,Z Vertex 3 {m}
  6.46578440716979, 3.048, 0;             !- X,Y,Z Vertex 4 {m}

OS:Surface,
  {30f16469-f706-4018-bf0d-071c5f2e275d}, !- Handle
  Surface 8,                              !- Name
  Wall,                                   !- Surface Type
  ,                                       !- Construction Name
  {2ca29cd1-8791-462b-bf85-ee11d6103e3f}, !- Space Name
  Outdoors,                               !- Outside Boundary Condition
  ,                                       !- Outside Boundary Condition Object
  SunExposed,                             !- Sun Exposure
  WindExposed,                            !- Wind Exposure
  ,                                       !- View Factor to Ground
  ,                                       !- Number of Vertices
  0, 15.9795688143396, 2.4384,            !- X,Y,Z Vertex 1 {m}
  0, 15.9795688143396, 0,                 !- X,Y,Z Vertex 2 {m}
  0, 3.048, 0,                            !- X,Y,Z Vertex 3 {m}
  0, 3.048, 2.4384;                       !- X,Y,Z Vertex 4 {m}

OS:Surface,
  {0e39c394-e1eb-4306-be8e-17387b24334c}, !- Handle
  Surface 9,                              !- Name
  Wall,                                   !- Surface Type
  ,                                       !- Construction Name
  {2ca29cd1-8791-462b-bf85-ee11d6103e3f}, !- Space Name
  Outdoors,                               !- Outside Boundary Condition
  ,                                       !- Outside Boundary Condition Object
  SunExposed,                             !- Sun Exposure
  WindExposed,                            !- Wind Exposure
  ,                                       !- View Factor to Ground
  ,                                       !- Number of Vertices
  6.46578440716979, 15.9795688143396, 2.4384, !- X,Y,Z Vertex 1 {m}
  6.46578440716979, 15.9795688143396, 0,  !- X,Y,Z Vertex 2 {m}
  0, 15.9795688143396, 0,                 !- X,Y,Z Vertex 3 {m}
  0, 15.9795688143396, 2.4384;            !- X,Y,Z Vertex 4 {m}

OS:Surface,
  {5d4c5ab4-5b6d-4038-87a7-683582526edf}, !- Handle
  Surface 10,                             !- Name
  Wall,                                   !- Surface Type
  ,                                       !- Construction Name
  {2ca29cd1-8791-462b-bf85-ee11d6103e3f}, !- Space Name
  Surface,                                !- Outside Boundary Condition
  {ac232a92-8940-4179-baeb-7ec9130d1cff}, !- Outside Boundary Condition Object
  NoSun,                                  !- Sun Exposure
  NoWind,                                 !- Wind Exposure
  ,                                       !- View Factor to Ground
  ,                                       !- Number of Vertices
  6.46578440716979, 3.048, 2.4384,        !- X,Y,Z Vertex 1 {m}
  6.46578440716979, 3.048, 0,             !- X,Y,Z Vertex 2 {m}
  6.46578440716979, 15.9795688143396, 0,  !- X,Y,Z Vertex 3 {m}
  6.46578440716979, 15.9795688143396, 2.4384; !- X,Y,Z Vertex 4 {m}

OS:Surface,
  {74603186-a374-48da-8e37-4adf34dc297a}, !- Handle
  Surface 11,                             !- Name
  Wall,                                   !- Surface Type
  ,                                       !- Construction Name
  {2ca29cd1-8791-462b-bf85-ee11d6103e3f}, !- Space Name
  Adiabatic,                              !- Outside Boundary Condition
  ,                                       !- Outside Boundary Condition Object
  NoSun,                                  !- Sun Exposure
  NoWind,                                 !- Wind Exposure
  ,                                       !- View Factor to Ground
  ,                                       !- Number of Vertices
  0, 3.048, 2.4384,                       !- X,Y,Z Vertex 1 {m}
  0, 3.048, 0,                            !- X,Y,Z Vertex 2 {m}
  6.46578440716979, 3.048, 0,             !- X,Y,Z Vertex 3 {m}
  6.46578440716979, 3.048, 2.4384;        !- X,Y,Z Vertex 4 {m}

OS:Surface,
  {17a4d235-b714-44a5-be8a-676cb17540b6}, !- Handle
  Surface 12,                             !- Name
  RoofCeiling,                            !- Surface Type
  ,                                       !- Construction Name
  {2ca29cd1-8791-462b-bf85-ee11d6103e3f}, !- Space Name
  Outdoors,                               !- Outside Boundary Condition
  ,                                       !- Outside Boundary Condition Object
  SunExposed,                             !- Sun Exposure
  WindExposed,                            !- Wind Exposure
  ,                                       !- View Factor to Ground
  ,                                       !- Number of Vertices
  6.46578440716979, 3.048, 2.4384,        !- X,Y,Z Vertex 1 {m}
  6.46578440716979, 15.9795688143396, 2.4384, !- X,Y,Z Vertex 2 {m}
  0, 15.9795688143396, 2.4384,            !- X,Y,Z Vertex 3 {m}
  0, 3.048, 2.4384;                       !- X,Y,Z Vertex 4 {m}

OS:ThermalZone,
  {46be802a-d00c-4646-977c-bee6760bbf75}, !- Handle
  living zone|unit 3,                     !- Name
  ,                                       !- Multiplier
  ,                                       !- Ceiling Height {m}
  ,                                       !- Volume {m3}
  ,                                       !- Floor Area {m2}
  ,                                       !- Zone Inside Convection Algorithm
  ,                                       !- Zone Outside Convection Algorithm
  ,                                       !- Zone Conditioning Equipment List Name
  {42799182-98af-4af7-8bce-161f4298c80a}, !- Zone Air Inlet Port List
  {2e6946ee-07ef-4d82-9694-8f5a84e15b13}, !- Zone Air Exhaust Port List
  {307f3559-8e79-4ea8-a2a2-0ea2fdf103dd}, !- Zone Air Node Name
  {2a189ec1-c543-46ad-829e-073f29f1e01f}, !- Zone Return Air Port List
  ,                                       !- Primary Daylighting Control Name
  ,                                       !- Fraction of Zone Controlled by Primary Daylighting Control
  ,                                       !- Secondary Daylighting Control Name
  ,                                       !- Fraction of Zone Controlled by Secondary Daylighting Control
  ,                                       !- Illuminance Map Name
  ,                                       !- Group Rendering Name
  ,                                       !- Thermostat Name
  No;                                     !- Use Ideal Air Loads

OS:Node,
  {a818891d-397c-47cf-8134-7676e1729109}, !- Handle
  Node 3,                                 !- Name
  {307f3559-8e79-4ea8-a2a2-0ea2fdf103dd}, !- Inlet Port
  ;                                       !- Outlet Port

OS:Connection,
  {307f3559-8e79-4ea8-a2a2-0ea2fdf103dd}, !- Handle
  {8069ff8e-80bb-4e6e-acad-33ce313fa216}, !- Name
  {46be802a-d00c-4646-977c-bee6760bbf75}, !- Source Object
  11,                                     !- Outlet Port
  {a818891d-397c-47cf-8134-7676e1729109}, !- Target Object
  2;                                      !- Inlet Port

OS:PortList,
  {42799182-98af-4af7-8bce-161f4298c80a}, !- Handle
  {1f792b01-4fba-40b7-a395-bce1e3e3c68d}, !- Name
  {46be802a-d00c-4646-977c-bee6760bbf75}; !- HVAC Component

OS:PortList,
  {2e6946ee-07ef-4d82-9694-8f5a84e15b13}, !- Handle
  {db8819a1-c10d-49d1-9e76-aa451196bbbc}, !- Name
  {46be802a-d00c-4646-977c-bee6760bbf75}; !- HVAC Component

OS:PortList,
  {2a189ec1-c543-46ad-829e-073f29f1e01f}, !- Handle
  {152ab438-dfb0-4179-bcd1-b0723400f9da}, !- Name
  {46be802a-d00c-4646-977c-bee6760bbf75}; !- HVAC Component

OS:Sizing:Zone,
  {60bc3f90-64ed-408c-8fbf-124666aa22da}, !- Handle
  {46be802a-d00c-4646-977c-bee6760bbf75}, !- Zone or ZoneList Name
  SupplyAirTemperature,                   !- Zone Cooling Design Supply Air Temperature Input Method
  14,                                     !- Zone Cooling Design Supply Air Temperature {C}
  11.11,                                  !- Zone Cooling Design Supply Air Temperature Difference {deltaC}