!- NOTE: Auto-generated from /test/osw_files/MF_8units_1story_SL_Denver_ExteriorCorridor.osw

OS:Version,
  {97854bf2-be36-4383-85ca-370b557be14c}, !- Handle
  2.8.1;                                  !- Version Identifier

OS:SimulationControl,
  {b7c233b1-1745-4b52-8440-e1d3440e7d63}, !- Handle
  ,                                       !- Do Zone Sizing Calculation
  ,                                       !- Do System Sizing Calculation
  ,                                       !- Do Plant Sizing Calculation
  No;                                     !- Run Simulation for Sizing Periods

OS:Timestep,
  {65a654a7-9815-4663-9eaf-09b63b5aaad9}, !- Handle
  6;                                      !- Number of Timesteps per Hour

OS:ShadowCalculation,
  {5a85d1aa-91c6-45f5-a8cb-ef5bf8f0eeb1}, !- Handle
  20,                                     !- Calculation Frequency
  200;                                    !- Maximum Figures in Shadow Overlap Calculations

OS:SurfaceConvectionAlgorithm:Outside,
  {2a8eae90-924d-4bac-99cb-d60da5e6b570}, !- Handle
  DOE-2;                                  !- Algorithm

OS:SurfaceConvectionAlgorithm:Inside,
  {c7ec26df-248f-4ed8-9168-16a6b359b93a}, !- Handle
  TARP;                                   !- Algorithm

OS:ZoneCapacitanceMultiplier:ResearchSpecial,
  {a1ba3ed1-6f2f-44dd-9ad3-9ea9e3881c94}, !- Handle
  ,                                       !- Temperature Capacity Multiplier
  15,                                     !- Humidity Capacity Multiplier
  ;                                       !- Carbon Dioxide Capacity Multiplier

OS:RunPeriod,
  {9a539890-4099-492d-890d-03c8a7d6c020}, !- Handle
  Run Period 1,                           !- Name
  1,                                      !- Begin Month
  1,                                      !- Begin Day of Month
  12,                                     !- End Month
  31,                                     !- End Day of Month
  ,                                       !- Use Weather File Holidays and Special Days
  ,                                       !- Use Weather File Daylight Saving Period
  ,                                       !- Apply Weekend Holiday Rule
  ,                                       !- Use Weather File Rain Indicators
  ,                                       !- Use Weather File Snow Indicators
  ;                                       !- Number of Times Runperiod to be Repeated

OS:YearDescription,
  {db4d4ac9-b06a-40bb-9f3d-cb079393e62e}, !- Handle
  2007,                                   !- Calendar Year
  ,                                       !- Day of Week for Start Day
  ;                                       !- Is Leap Year

OS:ThermalZone,
  {77cd1947-8977-4f5f-94d7-2922bdcb149a}, !- Handle
  living zone,                            !- Name
  ,                                       !- Multiplier
  ,                                       !- Ceiling Height {m}
  ,                                       !- Volume {m3}
  ,                                       !- Floor Area {m2}
  ,                                       !- Zone Inside Convection Algorithm
  ,                                       !- Zone Outside Convection Algorithm
  ,                                       !- Zone Conditioning Equipment List Name
  {3110e07a-c7e8-4adf-8cb0-10e0a94bf912}, !- Zone Air Inlet Port List
  {6f97a181-59b9-4fcb-9097-ad479600cf28}, !- Zone Air Exhaust Port List
  {364fcbae-4142-43e5-9f92-bae4b585c7a1}, !- Zone Air Node Name
  {1fd0332a-41ff-4cd2-b029-8cc5fcc63116}, !- Zone Return Air Port List
  ,                                       !- Primary Daylighting Control Name
  ,                                       !- Fraction of Zone Controlled by Primary Daylighting Control
  ,                                       !- Secondary Daylighting Control Name
  ,                                       !- Fraction of Zone Controlled by Secondary Daylighting Control
  ,                                       !- Illuminance Map Name
  ,                                       !- Group Rendering Name
  ,                                       !- Thermostat Name
  No;                                     !- Use Ideal Air Loads

OS:Node,
  {194f4abc-4d39-49e4-9192-084c214f48cc}, !- Handle
  Node 1,                                 !- Name
  {364fcbae-4142-43e5-9f92-bae4b585c7a1}, !- Inlet Port
  ;                                       !- Outlet Port

OS:Connection,
  {364fcbae-4142-43e5-9f92-bae4b585c7a1}, !- Handle
  {a5c65282-d72f-4885-b424-069271ff7fd6}, !- Name
  {77cd1947-8977-4f5f-94d7-2922bdcb149a}, !- Source Object
  11,                                     !- Outlet Port
  {194f4abc-4d39-49e4-9192-084c214f48cc}, !- Target Object
  2;                                      !- Inlet Port

OS:PortList,
  {3110e07a-c7e8-4adf-8cb0-10e0a94bf912}, !- Handle
  {05dc9758-34f9-4e3a-85c7-7ceb68bac5d5}, !- Name
  {77cd1947-8977-4f5f-94d7-2922bdcb149a}; !- HVAC Component

OS:PortList,
  {6f97a181-59b9-4fcb-9097-ad479600cf28}, !- Handle
  {15610ec2-ca4a-4eef-b3b8-f10020d3f497}, !- Name
  {77cd1947-8977-4f5f-94d7-2922bdcb149a}; !- HVAC Component

OS:PortList,
  {1fd0332a-41ff-4cd2-b029-8cc5fcc63116}, !- Handle
  {86d7b989-c656-4bba-a9b8-3ac395612a69}, !- Name
  {77cd1947-8977-4f5f-94d7-2922bdcb149a}; !- HVAC Component

OS:Sizing:Zone,
  {a1c25621-f425-44dd-9715-3748828a7a92}, !- Handle
  {77cd1947-8977-4f5f-94d7-2922bdcb149a}, !- Zone or ZoneList Name
  SupplyAirTemperature,                   !- Zone Cooling Design Supply Air Temperature Input Method
  14,                                     !- Zone Cooling Design Supply Air Temperature {C}
  11.11,                                  !- Zone Cooling Design Supply Air Temperature Difference {deltaC}
  SupplyAirTemperature,                   !- Zone Heating Design Supply Air Temperature Input Method
  40,                                     !- Zone Heating Design Supply Air Temperature {C}
  11.11,                                  !- Zone Heating Design Supply Air Temperature Difference {deltaC}
  0.0085,                                 !- Zone Cooling Design Supply Air Humidity Ratio {kg-H2O/kg-air}
  0.008,                                  !- Zone Heating Design Supply Air Humidity Ratio {kg-H2O/kg-air}
  ,                                       !- Zone Heating Sizing Factor
  ,                                       !- Zone Cooling Sizing Factor
  DesignDay,                              !- Cooling Design Air Flow Method
  ,                                       !- Cooling Design Air Flow Rate {m3/s}
  ,                                       !- Cooling Minimum Air Flow per Zone Floor Area {m3/s-m2}
  ,                                       !- Cooling Minimum Air Flow {m3/s}
  ,                                       !- Cooling Minimum Air Flow Fraction
  DesignDay,                              !- Heating Design Air Flow Method
  ,                                       !- Heating Design Air Flow Rate {m3/s}
  ,                                       !- Heating Maximum Air Flow per Zone Floor Area {m3/s-m2}
  ,                                       !- Heating Maximum Air Flow {m3/s}
  ,                                       !- Heating Maximum Air Flow Fraction
  ,                                       !- Design Zone Air Distribution Effectiveness in Cooling Mode
  ,                                       !- Design Zone Air Distribution Effectiveness in Heating Mode
  No,                                     !- Account for Dedicated Outdoor Air System
  NeutralSupplyAir,                       !- Dedicated Outdoor Air System Control Strategy
  autosize,                               !- Dedicated Outdoor Air Low Setpoint Temperature for Design {C}
  autosize;                               !- Dedicated Outdoor Air High Setpoint Temperature for Design {C}

OS:ZoneHVAC:EquipmentList,
  {97393e01-df21-41c3-a66f-2df6eceb3205}, !- Handle
  Zone HVAC Equipment List 1,             !- Name
  {77cd1947-8977-4f5f-94d7-2922bdcb149a}; !- Thermal Zone

OS:Space,
  {08d9b86d-bc8c-4e42-9ab1-7228c7b8bce9}, !- Handle
  living space,                           !- Name
  {901b3228-e70b-4286-bb16-cf6c8d896a8c}, !- Space Type Name
  ,                                       !- Default Construction Set Name
  ,                                       !- Default Schedule Set Name
  ,                                       !- Direction of Relative North {deg}
  ,                                       !- X Origin {m}
  ,                                       !- Y Origin {m}
  ,                                       !- Z Origin {m}
  ,                                       !- Building Story Name
  {77cd1947-8977-4f5f-94d7-2922bdcb149a}, !- Thermal Zone Name
  ,                                       !- Part of Total Floor Area
  ,                                       !- Design Specification Outdoor Air Object Name
  {5fd83b77-e970-41de-a310-980d19f6bf12}; !- Building Unit Name

OS:Surface,
  {7cb95282-fc04-4176-a452-4d85a088e47b}, !- Handle
  Surface 1,                              !- Name
  Floor,                                  !- Surface Type
  ,                                       !- Construction Name
  {08d9b86d-bc8c-4e42-9ab1-7228c7b8bce9}, !- Space Name
  Foundation,                             !- Outside Boundary Condition
  ,                                       !- Outside Boundary Condition Object
  NoSun,                                  !- Sun Exposure
  NoWind,                                 !- Wind Exposure
  ,                                       !- View Factor to Ground
  ,                                       !- Number of Vertices
  0, -12.9315688143396, 0,                !- X,Y,Z Vertex 1 {m}
  0, 0, 0,                                !- X,Y,Z Vertex 2 {m}
  6.46578440716979, 0, 0,                 !- X,Y,Z Vertex 3 {m}
  6.46578440716979, -12.9315688143396, 0; !- X,Y,Z Vertex 4 {m}

OS:Surface,
  {f3af2d5d-48d4-434b-bc0a-41ecb87c5843}, !- Handle
  Surface 2,                              !- Name
  Wall,                                   !- Surface Type
  ,                                       !- Construction Name
  {08d9b86d-bc8c-4e42-9ab1-7228c7b8bce9}, !- Space Name
  Outdoors,                               !- Outside Boundary Condition
  ,                                       !- Outside Boundary Condition Object
  SunExposed,                             !- Sun Exposure
  WindExposed,                            !- Wind Exposure
  ,                                       !- View Factor to Ground
  ,                                       !- Number of Vertices
  0, 0, 2.4384,                           !- X,Y,Z Vertex 1 {m}
  0, 0, 0,                                !- X,Y,Z Vertex 2 {m}
  0, -12.9315688143396, 0,                !- X,Y,Z Vertex 3 {m}
  0, -12.9315688143396, 2.4384;           !- X,Y,Z Vertex 4 {m}

OS:Surface,
  {c094a901-d507-48ab-85f2-21560a31e22f}, !- Handle
  Surface 3,                              !- Name
  Wall,                                   !- Surface Type
  ,                                       !- Construction Name
  {08d9b86d-bc8c-4e42-9ab1-7228c7b8bce9}, !- Space Name
  Outdoors,                               !- Outside Boundary Condition
  ,                                       !- Outside Boundary Condition Object
  SunExposed,                             !- Sun Exposure
  WindExposed,                            !- Wind Exposure
  ,                                       !- View Factor to Ground
  ,                                       !- Number of Vertices
  6.46578440716979, 0, 2.4384,            !- X,Y,Z Vertex 1 {m}
  6.46578440716979, 0, 0,                 !- X,Y,Z Vertex 2 {m}
  0, 0, 0,                                !- X,Y,Z Vertex 3 {m}
  0, 0, 2.4384;                           !- X,Y,Z Vertex 4 {m}

OS:Surface,
  {369db48b-fed0-4f51-8ffc-37b6a3472181}, !- Handle
  Surface 4,                              !- Name
  Wall,                                   !- Surface Type
  ,                                       !- Construction Name
  {08d9b86d-bc8c-4e42-9ab1-7228c7b8bce9}, !- Space Name
  Surface,                                !- Outside Boundary Condition
  {8ec954db-dfd2-41d3-9e79-36f5c8cbbd47}, !- Outside Boundary Condition Object
  NoSun,                                  !- Sun Exposure
  NoWind,                                 !- Wind Exposure
  ,                                       !- View Factor to Ground
  ,                                       !- Number of Vertices
  6.46578440716979, -12.9315688143396, 2.4384, !- X,Y,Z Vertex 1 {m}
  6.46578440716979, -12.9315688143396, 0, !- X,Y,Z Vertex 2 {m}
  6.46578440716979, 0, 0,                 !- X,Y,Z Vertex 3 {m}
  6.46578440716979, 0, 2.4384;            !- X,Y,Z Vertex 4 {m}

OS:Surface,
  {53e4fbad-01b1-471f-b3fc-277bf54a7097}, !- Handle
  Surface 5,                              !- Name
  Wall,                                   !- Surface Type
  ,                                       !- Construction Name
  {08d9b86d-bc8c-4e42-9ab1-7228c7b8bce9}, !- Space Name
  Outdoors,                               !- Outside Boundary Condition
  ,                                       !- Outside Boundary Condition Object
  SunExposed,                             !- Sun Exposure
  WindExposed,                            !- Wind Exposure
  ,                                       !- View Factor to Ground
  ,                                       !- Number of Vertices
  0, -12.9315688143396, 2.4384,           !- X,Y,Z Vertex 1 {m}
  0, -12.9315688143396, 0,                !- X,Y,Z Vertex 2 {m}
  6.46578440716979, -12.9315688143396, 0, !- X,Y,Z Vertex 3 {m}
  6.46578440716979, -12.9315688143396, 2.4384; !- X,Y,Z Vertex 4 {m}

OS:Surface,
  {082029da-107f-4134-9a31-66431f845f2b}, !- Handle
  Surface 6,                              !- Name
  RoofCeiling,                            !- Surface Type
  ,                                       !- Construction Name
  {08d9b86d-bc8c-4e42-9ab1-7228c7b8bce9}, !- Space Name
  Outdoors,                               !- Outside Boundary Condition
  ,                                       !- Outside Boundary Condition Object
  SunExposed,                             !- Sun Exposure
  WindExposed,                            !- Wind Exposure
  ,                                       !- View Factor to Ground
  ,                                       !- Number of Vertices
  6.46578440716979, -12.9315688143396, 2.4384, !- X,Y,Z Vertex 1 {m}
  6.46578440716979, 0, 2.4384,            !- X,Y,Z Vertex 2 {m}
  0, 0, 2.4384,                           !- X,Y,Z Vertex 3 {m}
  0, -12.9315688143396, 2.4384;           !- X,Y,Z Vertex 4 {m}

OS:SpaceType,
  {901b3228-e70b-4286-bb16-cf6c8d896a8c}, !- Handle
  Space Type 1,                           !- Name
  ,                                       !- Default Construction Set Name
  ,                                       !- Default Schedule Set Name
  ,                                       !- Group Rendering Name
  ,                                       !- Design Specification Outdoor Air Object Name
  ,                                       !- Standards Template
  ,                                       !- Standards Building Type
  living;                                 !- Standards Space Type

OS:ThermalZone,
  {f83b173f-78e8-4295-bd83-747bcedbaf8e}, !- Handle
  living zone|unit 2,                     !- Name
  ,                                       !- Multiplier
  ,                                       !- Ceiling Height {m}
  ,                                       !- Volume {m3}
  ,                                       !- Floor Area {m2}
  ,                                       !- Zone Inside Convection Algorithm
  ,                                       !- Zone Outside Convection Algorithm
  ,                                       !- Zone Conditioning Equipment List Name
  {fb84b0e7-8ddb-4d67-b4c5-f13ff85aac36}, !- Zone Air Inlet Port List
  {e209acf4-0157-4375-9d6d-30c4dc8b7d64}, !- Zone Air Exhaust Port List
  {5259c4b3-fbc4-45f3-9509-e5c76a817837}, !- Zone Air Node Name
  {c6a0b72d-e552-4667-b64f-5a5f8805d355}, !- Zone Return Air Port List
  ,                                       !- Primary Daylighting Control Name
  ,                                       !- Fraction of Zone Controlled by Primary Daylighting Control
  ,                                       !- Secondary Daylighting Control Name
  ,                                       !- Fraction of Zone Controlled by Secondary Daylighting Control
  ,                                       !- Illuminance Map Name
  ,                                       !- Group Rendering Name
  ,                                       !- Thermostat Name
  No;                                     !- Use Ideal Air Loads

OS:Node,
  {918de948-eac5-484f-84a5-0f9a18153ba6}, !- Handle
  Node 2,                                 !- Name
  {5259c4b3-fbc4-45f3-9509-e5c76a817837}, !- Inlet Port
  ;                                       !- Outlet Port

OS:Connection,
  {5259c4b3-fbc4-45f3-9509-e5c76a817837}, !- Handle
  {11b0914c-b96a-414a-a19e-bf894150e198}, !- Name
  {f83b173f-78e8-4295-bd83-747bcedbaf8e}, !- Source Object
  11,                                     !- Outlet Port
  {918de948-eac5-484f-84a5-0f9a18153ba6}, !- Target Object
  2;                                      !- Inlet Port

OS:PortList,
  {fb84b0e7-8ddb-4d67-b4c5-f13ff85aac36}, !- Handle
  {e5bb4b1e-96bd-468e-ac36-f89897228830}, !- Name
  {f83b173f-78e8-4295-bd83-747bcedbaf8e}; !- HVAC Component

OS:PortList,
  {e209acf4-0157-4375-9d6d-30c4dc8b7d64}, !- Handle
  {a8108f1a-b2dc-4607-9a32-1ea741b70f3b}, !- Name
  {f83b173f-78e8-4295-bd83-747bcedbaf8e}; !- HVAC Component

OS:PortList,
  {c6a0b72d-e552-4667-b64f-5a5f8805d355}, !- Handle
  {6c72957d-96a7-445b-bffe-04c4c715c442}, !- Name
  {f83b173f-78e8-4295-bd83-747bcedbaf8e}; !- HVAC Component

OS:Sizing:Zone,
  {b83babe3-030b-4783-9c5c-c6a26d7882cf}, !- Handle
  {f83b173f-78e8-4295-bd83-747bcedbaf8e}, !- Zone or ZoneList Name
  SupplyAirTemperature,                   !- Zone Cooling Design Supply Air Temperature Input Method
  14,                                     !- Zone Cooling Design Supply Air Temperature {C}
  11.11,                                  !- Zone Cooling Design Supply Air Temperature Difference {deltaC}
  SupplyAirTemperature,                   !- Zone Heating Design Supply Air Temperature Input Method
  40,                                     !- Zone Heating Design Supply Air Temperature {C}
  11.11,                                  !- Zone Heating Design Supply Air Temperature Difference {deltaC}
  0.0085,                                 !- Zone Cooling Design Supply Air Humidity Ratio {kg-H2O/kg-air}
  0.008,                                  !- Zone Heating Design Supply Air Humidity Ratio {kg-H2O/kg-air}
  ,                                       !- Zone Heating Sizing Factor
  ,                                       !- Zone Cooling Sizing Factor
  DesignDay,                              !- Cooling Design Air Flow Method
  ,                                       !- Cooling Design Air Flow Rate {m3/s}
  ,                                       !- Cooling Minimum Air Flow per Zone Floor Area {m3/s-m2}
  ,                                       !- Cooling Minimum Air Flow {m3/s}
  ,                                       !- Cooling Minimum Air Flow Fraction
  DesignDay,                              !- Heating Design Air Flow Method
  ,                                       !- Heating Design Air Flow Rate {m3/s}
  ,                                       !- Heating Maximum Air Flow per Zone Floor Area {m3/s-m2}
  ,                                       !- Heating Maximum Air Flow {m3/s}
  ,                                       !- Heating Maximum Air Flow Fraction
  ,                                       !- Design Zone Air Distribution Effectiveness in Cooling Mode
  ,                                       !- Design Zone Air Distribution Effectiveness in Heating Mode
  No,                                     !- Account for Dedicated Outdoor Air System
  NeutralSupplyAir,                       !- Dedicated Outdoor Air System Control Strategy
  autosize,                               !- Dedicated Outdoor Air Low Setpoint Temperature for Design {C}
  autosize;                               !- Dedicated Outdoor Air High Setpoint Temperature for Design {C}

OS:ZoneHVAC:EquipmentList,
  {4d76a730-36a3-4263-ac5a-ef46f23c50bd}, !- Handle
  Zone HVAC Equipment List 2,             !- Name
  {f83b173f-78e8-4295-bd83-747bcedbaf8e}; !- Thermal Zone

OS:Space,
  {789d47ba-659b-41b0-ac88-657eaa604bf2}, !- Handle
  living space|unit 2|story 1,            !- Name
  {901b3228-e70b-4286-bb16-cf6c8d896a8c}, !- Space Type Name
  ,                                       !- Default Construction Set Name
  ,                                       !- Default Schedule Set Name
  -0,                                     !- Direction of Relative North {deg}
  0,                                      !- X Origin {m}
  0,                                      !- Y Origin {m}
  0,                                      !- Z Origin {m}
  ,                                       !- Building Story Name
  {f83b173f-78e8-4295-bd83-747bcedbaf8e}, !- Thermal Zone Name
  ,                                       !- Part of Total Floor Area
  ,                                       !- Design Specification Outdoor Air Object Name
  {f9d2e1ab-1ecf-4645-964a-dab0b85b0dd4}; !- Building Unit Name

OS:Surface,
  {eeb72ac9-5fa4-4bfa-8989-5e826a6dd4a0}, !- Handle
  Surface 7,                              !- Name
  Wall,                                   !- Surface Type
  ,                                       !- Construction Name
  {789d47ba-659b-41b0-ac88-657eaa604bf2}, !- Space Name
  Surface,                                !- Outside Boundary Condition
  {7316fbba-72fb-4bc0-8c01-59d9c26eb603}, !- Outside Boundary Condition Object
  NoSun,                                  !- Sun Exposure
  NoWind,                                 !- Wind Exposure
  ,                                       !- View Factor to Ground
  ,                                       !- Number of Vertices
  12.9315688143396, -12.9315688143396, 2.4384, !- X,Y,Z Vertex 1 {m}
  12.9315688143396, -12.9315688143396, 0, !- X,Y,Z Vertex 2 {m}
  12.9315688143396, 0, 0,                 !- X,Y,Z Vertex 3 {m}
  12.9315688143396, 0, 2.4384;            !- X,Y,Z Vertex 4 {m}

OS:Surface,
  {b19f575b-a03b-4285-b6bc-3632e0b5919d}, !- Handle
  Surface 8,                              !- Name
  Wall,                                   !- Surface Type
  ,                                       !- Construction Name
  {789d47ba-659b-41b0-ac88-657eaa604bf2}, !- Space Name
  Outdoors,                               !- Outside Boundary Condition
  ,                                       !- Outside Boundary Condition Object
  SunExposed,                             !- Sun Exposure
  WindExposed,                            !- Wind Exposure
  ,                                       !- View Factor to Ground
  ,                                       !- Number of Vertices
  6.46578440716979, -12.9315688143396, 2.4384, !- X,Y,Z Vertex 1 {m}
  6.46578440716979, -12.9315688143396, 0, !- X,Y,Z Vertex 2 {m}
  12.9315688143396, -12.9315688143396, 0, !- X,Y,Z Vertex 3 {m}
  12.9315688143396, -12.9315688143396, 2.4384; !- X,Y,Z Vertex 4 {m}

OS:Surface,
  {157be2f6-0fad-419b-9d5a-241368d127db}, !- Handle
  Surface 9,                              !- Name
  RoofCeiling,                            !- Surface Type
  ,                                       !- Construction Name
  {789d47ba-659b-41b0-ac88-657eaa604bf2}, !- Space Name
  Outdoors,                               !- Outside Boundary Condition
  ,                                       !- Outside Boundary Condition Object
  SunExposed,                             !- Sun Exposure
  WindExposed,                            !- Wind Exposure
  ,                                       !- View Factor to Ground
  ,                                       !- Number of Vertices
  12.9315688143396, -12.9315688143396, 2.4384, !- X,Y,Z Vertex 1 {m}
  12.9315688143396, 0, 2.4384,            !- X,Y,Z Vertex 2 {m}
  6.46578440716979, 0, 2.4384,            !- X,Y,Z Vertex 3 {m}
  6.46578440716979, -12.9315688143396, 2.4384; !- X,Y,Z Vertex 4 {m}

OS:Surface,
  {8ec954db-dfd2-41d3-9e79-36f5c8cbbd47}, !- Handle
  Surface 10,                             !- Name
  Wall,                                   !- Surface Type
  ,                                       !- Construction Name
  {789d47ba-659b-41b0-ac88-657eaa604bf2}, !- Space Name
  Surface,                                !- Outside Boundary Condition
  {369db48b-fed0-4f51-8ffc-37b6a3472181}, !- Outside Boundary Condition Object
  NoSun,                                  !- Sun Exposure
  NoWind,                                 !- Wind Exposure
  ,                                       !- View Factor to Ground
  ,                                       !- Number of Vertices
  6.46578440716979, 0, 2.4384,            !- X,Y,Z Vertex 1 {m}
  6.46578440716979, 0, 0,                 !- X,Y,Z Vertex 2 {m}
  6.46578440716979, -12.9315688143396, 0, !- X,Y,Z Vertex 3 {m}
  6.46578440716979, -12.9315688143396, 2.4384; !- X,Y,Z Vertex 4 {m}

OS:Surface,
  {57e1a3d4-e751-4c0b-8732-4475a940ae47}, !- Handle
  Surface 11,                             !- Name
  Wall,                                   !- Surface Type
  ,                                       !- Construction Name
  {789d47ba-659b-41b0-ac88-657eaa604bf2}, !- Space Name
  Outdoors,                               !- Outside Boundary Condition
  ,                                       !- Outside Boundary Condition Object
  SunExposed,                             !- Sun Exposure
  WindExposed,                            !- Wind Exposure
  ,                                       !- View Factor to Ground
  ,                                       !- Number of Vertices
  12.9315688143396, 0, 2.4384,            !- X,Y,Z Vertex 1 {m}
  12.9315688143396, 0, 0,                 !- X,Y,Z Vertex 2 {m}
  6.46578440716979, 0, 0,                 !- X,Y,Z Vertex 3 {m}
  6.46578440716979, 0, 2.4384;            !- X,Y,Z Vertex 4 {m}

OS:Surface,
  {4fe009d3-7126-445a-a9c1-32d72abcfe8e}, !- Handle
  Surface 12,                             !- Name
  Floor,                                  !- Surface Type
  ,                                       !- Construction Name
  {789d47ba-659b-41b0-ac88-657eaa604bf2}, !- Space Name
  Foundation,                             !- Outside Boundary Condition
  ,                                       !- Outside Boundary Condition Object
  NoSun,                                  !- Sun Exposure
  NoWind,                                 !- Wind Exposure
  ,                                       !- View Factor to Ground
  ,                                       !- Number of Vertices
  6.46578440716979, -12.9315688143396, 0, !- X,Y,Z Vertex 1 {m}
  6.46578440716979, 0, 0,                 !- X,Y,Z Vertex 2 {m}
  12.9315688143396, 0, 0,                 !- X,Y,Z Vertex 3 {m}
  12.9315688143396, -12.9315688143396, 0; !- X,Y,Z Vertex 4 {m}

OS:ThermalZone,
  {1296040b-4167-4f87-8d45-173f7b2758f9}, !- Handle
  living zone|unit 3,                     !- Name
  ,                                       !- Multiplier
  ,                                       !- Ceiling Height {m}
  ,                                       !- Volume {m3}
  ,                                       !- Floor Area {m2}
  ,                                       !- Zone Inside Convection Algorithm
  ,                                       !- Zone Outside Convection Algorithm
  ,                                       !- Zone Conditioning Equipment List Name
  {b9a189ee-3626-48b2-9442-92af9e278124}, !- Zone Air Inlet Port List
  {a866a17e-4ba4-4bcd-b087-6816683b49f2}, !- Zone Air Exhaust Port List
  {8e0346b3-4615-4662-858c-f7745f10c566}, !- Zone Air Node Name
  {d5ce4f6e-44d9-4120-8e5d-b8d4cb9f8beb}, !- Zone Return Air Port List
  ,                                       !- Primary Daylighting Control Name
  ,                                       !- Fraction of Zone Controlled by Primary Daylighting Control
  ,                                       !- Secondary Daylighting Control Name
  ,                                       !- Fraction of Zone Controlled by Secondary Daylighting Control
  ,                                       !- Illuminance Map Name
  ,                                       !- Group Rendering Name
  ,                                       !- Thermostat Name
  No;                                     !- Use Ideal Air Loads

OS:Node,
  {bd2f1e7b-1148-4af4-9940-f283c0c272f1}, !- Handle
  Node 3,                                 !- Name
  {8e0346b3-4615-4662-858c-f7745f10c566}, !- Inlet Port
  ;                                       !- Outlet Port

OS:Connection,
  {8e0346b3-4615-4662-858c-f7745f10c566}, !- Handle
  {d40046bc-b841-470f-97fd-cdc8fbcf0b65}, !- Name
  {1296040b-4167-4f87-8d45-173f7b2758f9}, !- Source Object
  11,                                     !- Outlet Port
  {bd2f1e7b-1148-4af4-9940-f283c0c272f1}, !- Target Object
  2;                                      !- Inlet Port

OS:PortList,
  {b9a189ee-3626-48b2-9442-92af9e278124}, !- Handle
  {6095e88d-486c-4535-9a8f-070768e2a037}, !- Name
  {1296040b-4167-4f87-8d45-173f7b2758f9}; !- HVAC Component

OS:PortList,
  {a866a17e-4ba4-4bcd-b087-6816683b49f2}, !- Handle
  {1b869325-94a5-437a-92b9-0cc8aba72add}, !- Name
  {1296040b-4167-4f87-8d45-173f7b2758f9}; !- HVAC Component

OS:PortList,
  {d5ce4f6e-44d9-4120-8e5d-b8d4cb9f8beb}, !- Handle
  {196f924a-3fd0-48f3-9023-f045ea589818}, !- Name
  {1296040b-4167-4f87-8d45-173f7b2758f9}; !- HVAC Component

OS:Sizing:Zone,
  {8c2f2a28-3f54-4841-9062-29f19bb3ce4d}, !- Handle
  {1296040b-4167-4f87-8d45-173f7b2758f9}, !- Zone or ZoneList Name