!- NOTE: Auto-generated from /test/osw_files/MF_8units_1story_SL_Denver_ExteriorCorridor.osw

OS:Version,
  {d1efcd45-29ac-4819-aafe-d138a09ebfe3}, !- Handle
  2.9.0;                                  !- Version Identifier

OS:SimulationControl,
  {706c23a7-88a1-453e-9471-3e301e4833e1}, !- Handle
  ,                                       !- Do Zone Sizing Calculation
  ,                                       !- Do System Sizing Calculation
  ,                                       !- Do Plant Sizing Calculation
  No;                                     !- Run Simulation for Sizing Periods

OS:Timestep,
  {078bde96-a20f-4db8-b420-c74d106ba174}, !- Handle
  6;                                      !- Number of Timesteps per Hour

OS:ShadowCalculation,
  {0967a342-ae3b-4ede-9c5d-f00afbe5ae9b}, !- Handle
  20,                                     !- Calculation Frequency
  200;                                    !- Maximum Figures in Shadow Overlap Calculations

OS:SurfaceConvectionAlgorithm:Outside,
  {2c7061a8-8e74-4c22-a725-4d1ab350b857}, !- Handle
  DOE-2;                                  !- Algorithm

OS:SurfaceConvectionAlgorithm:Inside,
  {940fb62f-9e26-4ef3-be32-82840586fe0c}, !- Handle
  TARP;                                   !- Algorithm

OS:ZoneCapacitanceMultiplier:ResearchSpecial,
  {00d8cd48-2cd1-49a2-a3d6-aa355eb50e02}, !- Handle
  ,                                       !- Temperature Capacity Multiplier
  15,                                     !- Humidity Capacity Multiplier
  ;                                       !- Carbon Dioxide Capacity Multiplier

OS:RunPeriod,
  {b1f349d0-4e4c-41f1-a1c0-ea59bce20e76}, !- Handle
  Run Period 1,                           !- Name
  1,                                      !- Begin Month
  1,                                      !- Begin Day of Month
  12,                                     !- End Month
  31,                                     !- End Day of Month
  ,                                       !- Use Weather File Holidays and Special Days
  ,                                       !- Use Weather File Daylight Saving Period
  ,                                       !- Apply Weekend Holiday Rule
  ,                                       !- Use Weather File Rain Indicators
  ,                                       !- Use Weather File Snow Indicators
  ;                                       !- Number of Times Runperiod to be Repeated

OS:YearDescription,
  {0e25983e-e39e-4105-b916-9cca20d88ed9}, !- Handle
  2007,                                   !- Calendar Year
  ,                                       !- Day of Week for Start Day
  ;                                       !- Is Leap Year

