!- NOTE: Auto-generated from /test/osw_files/SFA_4units_1story_SL_FA.osw

OS:Version,
  {c1f76876-be41-4dd7-922a-011ba7e629b8}, !- Handle
  2.9.0;                                  !- Version Identifier

OS:SimulationControl,
  {40c84d2a-e6c9-4a66-b7a6-a03b00196cbc}, !- Handle
  ,                                       !- Do Zone Sizing Calculation
  ,                                       !- Do System Sizing Calculation
  ,                                       !- Do Plant Sizing Calculation
  No;                                     !- Run Simulation for Sizing Periods

OS:Timestep,
  {904e8c05-2d4c-4785-b0c0-9f8ff7074940}, !- Handle
  6;                                      !- Number of Timesteps per Hour

OS:ShadowCalculation,
  {dff74edc-55bf-4e02-b255-642c637c0a1d}, !- Handle
  20,                                     !- Calculation Frequency
  200;                                    !- Maximum Figures in Shadow Overlap Calculations

OS:SurfaceConvectionAlgorithm:Outside,
  {d7bc9781-6632-4d59-9f77-fe1c0993aa91}, !- Handle
  DOE-2;                                  !- Algorithm

OS:SurfaceConvectionAlgorithm:Inside,
  {094e107e-3563-41a1-baab-f47932f3fa44}, !- Handle
  TARP;                                   !- Algorithm

OS:ZoneCapacitanceMultiplier:ResearchSpecial,
  {e3b5bd5a-e81c-4ee8-b14e-359a228b901d}, !- Handle
  ,                                       !- Temperature Capacity Multiplier
  15,                                     !- Humidity Capacity Multiplier
  ;                                       !- Carbon Dioxide Capacity Multiplier

OS:RunPeriod,
  {48119962-f942-4586-8833-7139111e4e07}, !- Handle
  Run Period 1,                           !- Name
  1,                                      !- Begin Month
  1,                                      !- Begin Day of Month
  12,                                     !- End Month
  31,                                     !- End Day of Month
  ,                                       !- Use Weather File Holidays and Special Days
  ,                                       !- Use Weather File Daylight Saving Period
  ,                                       !- Apply Weekend Holiday Rule
  ,                                       !- Use Weather File Rain Indicators
  ,                                       !- Use Weather File Snow Indicators
  ;                                       !- Number of Times Runperiod to be Repeated

OS:YearDescription,
  {f7f12ac5-9096-4c07-b897-8d10619d2c21}, !- Handle
  2007,                                   !- Calendar Year
  ,                                       !- Day of Week for Start Day
  ;                                       !- Is Leap Year

OS:ThermalZone,
  {395f6cd5-2d58-418e-8dc8-7a0f46275d1a}, !- Handle
  living zone,                            !- Name
  ,                                       !- Multiplier
  ,                                       !- Ceiling Height {m}
  ,                                       !- Volume {m3}
  ,                                       !- Floor Area {m2}
  ,                                       !- Zone Inside Convection Algorithm
  ,                                       !- Zone Outside Convection Algorithm
  ,                                       !- Zone Conditioning Equipment List Name
  {466c18e2-b1a2-4acc-9ece-a07fec09e3b9}, !- Zone Air Inlet Port List
  {e41f4bbd-f706-483b-a1e3-cc92f986adc4}, !- Zone Air Exhaust Port List
  {78f934de-50b3-4f63-9320-8024c0630e32}, !- Zone Air Node Name
  {d667a75d-8c89-45d7-b4d8-5c102f6041a1}, !- Zone Return Air Port List
  ,                                       !- Primary Daylighting Control Name
  ,                                       !- Fraction of Zone Controlled by Primary Daylighting Control
  ,                                       !- Secondary Daylighting Control Name
  ,                                       !- Fraction of Zone Controlled by Secondary Daylighting Control
  ,                                       !- Illuminance Map Name
  ,                                       !- Group Rendering Name
  ,                                       !- Thermostat Name
  No;                                     !- Use Ideal Air Loads

OS:Node,
  {01e3042c-bf77-4e81-9c3f-9516da6ef2de}, !- Handle
  Node 1,                                 !- Name
  {78f934de-50b3-4f63-9320-8024c0630e32}, !- Inlet Port
  ;                                       !- Outlet Port

OS:Connection,
  {78f934de-50b3-4f63-9320-8024c0630e32}, !- Handle
  {7d8f0e51-c2ae-4e5c-8440-b956fa28abbf}, !- Name
  {395f6cd5-2d58-418e-8dc8-7a0f46275d1a}, !- Source Object
  11,                                     !- Outlet Port
  {01e3042c-bf77-4e81-9c3f-9516da6ef2de}, !- Target Object
  2;                                      !- Inlet Port

OS:PortList,
  {466c18e2-b1a2-4acc-9ece-a07fec09e3b9}, !- Handle
  {073a8ad5-80ef-44d2-993a-f0eb7fe6e0b7}, !- Name
  {395f6cd5-2d58-418e-8dc8-7a0f46275d1a}; !- HVAC Component

OS:PortList,
  {e41f4bbd-f706-483b-a1e3-cc92f986adc4}, !- Handle
  {a869310a-9b36-4fd4-838c-b9d815586418}, !- Name
  {395f6cd5-2d58-418e-8dc8-7a0f46275d1a}; !- HVAC Component

OS:PortList,
  {d667a75d-8c89-45d7-b4d8-5c102f6041a1}, !- Handle
  {6af169fc-2325-40dd-8532-7f55e725ce00}, !- Name
  {395f6cd5-2d58-418e-8dc8-7a0f46275d1a}; !- HVAC Component

OS:Sizing:Zone,
  {9fd79780-afb3-43d2-9025-2fc803151c41}, !- Handle
  {395f6cd5-2d58-418e-8dc8-7a0f46275d1a}, !- Zone or ZoneList Name
  SupplyAirTemperature,                   !- Zone Cooling Design Supply Air Temperature Input Method
  14,                                     !- Zone Cooling Design Supply Air Temperature {C}
  11.11,                                  !- Zone Cooling Design Supply Air Temperature Difference {deltaC}
  SupplyAirTemperature,                   !- Zone Heating Design Supply Air Temperature Input Method
  40,                                     !- Zone Heating Design Supply Air Temperature {C}
  11.11,                                  !- Zone Heating Design Supply Air Temperature Difference {deltaC}
  0.0085,                                 !- Zone Cooling Design Supply Air Humidity Ratio {kg-H2O/kg-air}
  0.008,                                  !- Zone Heating Design Supply Air Humidity Ratio {kg-H2O/kg-air}
  ,                                       !- Zone Heating Sizing Factor
  ,                                       !- Zone Cooling Sizing Factor
  DesignDay,                              !- Cooling Design Air Flow Method
  ,                                       !- Cooling Design Air Flow Rate {m3/s}
  ,                                       !- Cooling Minimum Air Flow per Zone Floor Area {m3/s-m2}
  ,                                       !- Cooling Minimum Air Flow {m3/s}
  ,                                       !- Cooling Minimum Air Flow Fraction
  DesignDay,                              !- Heating Design Air Flow Method
  ,                                       !- Heating Design Air Flow Rate {m3/s}
  ,                                       !- Heating Maximum Air Flow per Zone Floor Area {m3/s-m2}
  ,                                       !- Heating Maximum Air Flow {m3/s}
  ,                                       !- Heating Maximum Air Flow Fraction
  ,                                       !- Design Zone Air Distribution Effectiveness in Cooling Mode
  ,                                       !- Design Zone Air Distribution Effectiveness in Heating Mode
  No,                                     !- Account for Dedicated Outdoor Air System
  NeutralSupplyAir,                       !- Dedicated Outdoor Air System Control Strategy
  autosize,                               !- Dedicated Outdoor Air Low Setpoint Temperature for Design {C}
  autosize;                               !- Dedicated Outdoor Air High Setpoint Temperature for Design {C}

OS:ZoneHVAC:EquipmentList,
  {259d4801-bedc-4ed3-89a9-a986fde15131}, !- Handle
  Zone HVAC Equipment List 1,             !- Name
  {395f6cd5-2d58-418e-8dc8-7a0f46275d1a}; !- Thermal Zone

OS:Space,
  {215aca5a-4080-4852-8241-8627ffce05a5}, !- Handle
  living space,                           !- Name
  {f2cc36f2-8deb-4de4-a8c8-4d774875c4cb}, !- Space Type Name
  ,                                       !- Default Construction Set Name
  ,                                       !- Default Schedule Set Name
  ,                                       !- Direction of Relative North {deg}
  ,                                       !- X Origin {m}
  ,                                       !- Y Origin {m}
  ,                                       !- Z Origin {m}
  ,                                       !- Building Story Name
  {395f6cd5-2d58-418e-8dc8-7a0f46275d1a}, !- Thermal Zone Name
  ,                                       !- Part of Total Floor Area
  ,                                       !- Design Specification Outdoor Air Object Name
  {836b9ab4-fd52-48bb-82ef-dd156aed783f}; !- Building Unit Name

OS:Surface,
  {2f238028-d97d-47cc-979d-404df4be8cea}, !- Handle
  Surface 1,                              !- Name
  Floor,                                  !- Surface Type
  ,                                       !- Construction Name
  {215aca5a-4080-4852-8241-8627ffce05a5}, !- Space Name
  Foundation,                             !- Outside Boundary Condition
  ,                                       !- Outside Boundary Condition Object
  NoSun,                                  !- Sun Exposure
  NoWind,                                 !- Wind Exposure
  ,                                       !- View Factor to Ground
  ,                                       !- Number of Vertices
  0, -9.144, 0,                           !- X,Y,Z Vertex 1 {m}
  0, 0, 0,                                !- X,Y,Z Vertex 2 {m}
  4.572, 0, 0,                            !- X,Y,Z Vertex 3 {m}
  4.572, -9.144, 0;                       !- X,Y,Z Vertex 4 {m}

OS:Surface,
  {8043da40-e2d9-4743-be72-06f3b0d21258}, !- Handle
  Surface 2,                              !- Name
  Wall,                                   !- Surface Type
  ,                                       !- Construction Name
  {215aca5a-4080-4852-8241-8627ffce05a5}, !- Space Name
  Outdoors,                               !- Outside Boundary Condition
  ,                                       !- Outside Boundary Condition Object
  SunExposed,                             !- Sun Exposure
  WindExposed,                            !- Wind Exposure
  ,                                       !- View Factor to Ground
  ,                                       !- Number of Vertices
  0, 0, 2.4384,                           !- X,Y,Z Vertex 1 {m}
  0, 0, 0,                                !- X,Y,Z Vertex 2 {m}
  0, -9.144, 0,                           !- X,Y,Z Vertex 3 {m}
  0, -9.144, 2.4384;                      !- X,Y,Z Vertex 4 {m}

OS:Surface,
  {2847bd27-ee3c-4716-938d-17ed5bc0a445}, !- Handle
  Surface 3,                              !- Name
  Wall,                                   !- Surface Type
  ,                                       !- Construction Name
  {215aca5a-4080-4852-8241-8627ffce05a5}, !- Space Name
  Outdoors,                               !- Outside Boundary Condition
  ,                                       !- Outside Boundary Condition Object
  SunExposed,                             !- Sun Exposure
  WindExposed,                            !- Wind Exposure
  ,                                       !- View Factor to Ground
  ,                                       !- Number of Vertices
  4.572, 0, 2.4384,                       !- X,Y,Z Vertex 1 {m}
  4.572, 0, 0,                            !- X,Y,Z Vertex 2 {m}
  0, 0, 0,                                !- X,Y,Z Vertex 3 {m}
  0, 0, 2.4384;                           !- X,Y,Z Vertex 4 {m}

OS:Surface,
  {2d222ffc-d4ac-428b-a441-47343aa4e330}, !- Handle
  Surface 4,                              !- Name
  Wall,                                   !- Surface Type
  ,                                       !- Construction Name
  {215aca5a-4080-4852-8241-8627ffce05a5}, !- Space Name
  Surface,                                !- Outside Boundary Condition
  {ca437988-6b39-4b46-a42e-0ab6386cd15f}, !- Outside Boundary Condition Object
  NoSun,                                  !- Sun Exposure
  NoWind,                                 !- Wind Exposure
  ,                                       !- View Factor to Ground
  ,                                       !- Number of Vertices
  4.572, -9.144, 2.4384,                  !- X,Y,Z Vertex 1 {m}
  4.572, -9.144, 0,                       !- X,Y,Z Vertex 2 {m}
  4.572, 0, 0,                            !- X,Y,Z Vertex 3 {m}
  4.572, 0, 2.4384;                       !- X,Y,Z Vertex 4 {m}

OS:Surface,
  {30725375-1f24-41f7-934f-b20e1642d0a9}, !- Handle
  Surface 5,                              !- Name
  Wall,                                   !- Surface Type
  ,                                       !- Construction Name
  {215aca5a-4080-4852-8241-8627ffce05a5}, !- Space Name
  Outdoors,                               !- Outside Boundary Condition
  ,                                       !- Outside Boundary Condition Object
  SunExposed,                             !- Sun Exposure
  WindExposed,                            !- Wind Exposure
  ,                                       !- View Factor to Ground
  ,                                       !- Number of Vertices
  0, -9.144, 2.4384,                      !- X,Y,Z Vertex 1 {m}
  0, -9.144, 0,                           !- X,Y,Z Vertex 2 {m}
  4.572, -9.144, 0,                       !- X,Y,Z Vertex 3 {m}
  4.572, -9.144, 2.4384;                  !- X,Y,Z Vertex 4 {m}

OS:Surface,
  {1538e3ec-7437-47c5-b9ba-461fe3c6aa0a}, !- Handle
  Surface 6,                              !- Name
  RoofCeiling,                            !- Surface Type
  ,                                       !- Construction Name
  {215aca5a-4080-4852-8241-8627ffce05a5}, !- Space Name
  Surface,                                !- Outside Boundary Condition
  {ebdc583e-d299-4bed-b4ac-a4cc72470f0b}, !- Outside Boundary Condition Object
  NoSun,                                  !- Sun Exposure
  NoWind,                                 !- Wind Exposure
  ,                                       !- View Factor to Ground
  ,                                       !- Number of Vertices
  4.572, -9.144, 2.4384,                  !- X,Y,Z Vertex 1 {m}
  4.572, 0, 2.4384,                       !- X,Y,Z Vertex 2 {m}
  0, 0, 2.4384,                           !- X,Y,Z Vertex 3 {m}
  0, -9.144, 2.4384;                      !- X,Y,Z Vertex 4 {m}

OS:SpaceType,
  {f2cc36f2-8deb-4de4-a8c8-4d774875c4cb}, !- Handle
  Space Type 1,                           !- Name
  ,                                       !- Default Construction Set Name
  ,                                       !- Default Schedule Set Name
  ,                                       !- Group Rendering Name
  ,                                       !- Design Specification Outdoor Air Object Name
  ,                                       !- Standards Template
  ,                                       !- Standards Building Type
  living;                                 !- Standards Space Type

OS:Surface,
  {ebdc583e-d299-4bed-b4ac-a4cc72470f0b}, !- Handle
  Surface 7,                              !- Name
  Floor,                                  !- Surface Type
  ,                                       !- Construction Name
  {1347d649-1bf1-4267-89cc-349a9088d27d}, !- Space Name
  Surface,                                !- Outside Boundary Condition
  {1538e3ec-7437-47c5-b9ba-461fe3c6aa0a}, !- Outside Boundary Condition Object
  NoSun,                                  !- Sun Exposure
  NoWind,                                 !- Wind Exposure
  ,                                       !- View Factor to Ground
  ,                                       !- Number of Vertices
  0, -9.144, 2.4384,                      !- X,Y,Z Vertex 1 {m}
  0, 0, 2.4384,                           !- X,Y,Z Vertex 2 {m}
  4.572, 0, 2.4384,                       !- X,Y,Z Vertex 3 {m}
  4.572, -9.144, 2.4384;                  !- X,Y,Z Vertex 4 {m}

OS:Surface,
  {d4856f99-acf0-4ad9-ada2-c16ad0e97364}, !- Handle
  Surface 8,                              !- Name
  RoofCeiling,                            !- Surface Type
  ,                                       !- Construction Name
  {1347d649-1bf1-4267-89cc-349a9088d27d}, !- Space Name
  Outdoors,                               !- Outside Boundary Condition
  ,                                       !- Outside Boundary Condition Object
  SunExposed,                             !- Sun Exposure
  WindExposed,                            !- Wind Exposure
  ,                                       !- View Factor to Ground
  ,                                       !- Number of Vertices
  2.286, 0, 3.5814,                       !- X,Y,Z Vertex 1 {m}
  0, 0, 2.4384,                           !- X,Y,Z Vertex 2 {m}
  0, -9.144, 2.4384,                      !- X,Y,Z Vertex 3 {m}
  2.286, -9.144, 3.5814;                  !- X,Y,Z Vertex 4 {m}

OS:Surface,
  {2b6ec525-f5f6-494a-900b-aa75a0c6dceb}, !- Handle
  Surface 9,                              !- Name
  RoofCeiling,                            !- Surface Type
  ,                                       !- Construction Name
  {1347d649-1bf1-4267-89cc-349a9088d27d}, !- Space Name
  Outdoors,                               !- Outside Boundary Condition
  ,                                       !- Outside Boundary Condition Object
  SunExposed,                             !- Sun Exposure
  WindExposed,                            !- Wind Exposure
  ,                                       !- View Factor to Ground
  ,                                       !- Number of Vertices
  2.286, -9.144, 3.5814,                  !- X,Y,Z Vertex 1 {m}
  4.572, -9.144, 2.4384,                  !- X,Y,Z Vertex 2 {m}
  4.572, 0, 2.4384,                       !- X,Y,Z Vertex 3 {m}
  2.286, 0, 3.5814;                       !- X,Y,Z Vertex 4 {m}

OS:Surface,
  {0b355f19-05f9-4541-b0b6-3f8b5f8fd77f}, !- Handle
  Surface 10,                             !- Name
  Wall,                                   !- Surface Type
  ,                                       !- Construction Name
  {1347d649-1bf1-4267-89cc-349a9088d27d}, !- Space Name
  Outdoors,                               !- Outside Boundary Condition
  ,                                       !- Outside Boundary Condition Object
  SunExposed,                             !- Sun Exposure
  WindExposed,                            !- Wind Exposure
  ,                                       !- View Factor to Ground
  ,                                       !- Number of Vertices
  2.286, -9.144, 3.5814,                  !- X,Y,Z Vertex 1 {m}
  0, -9.144, 2.4384,                      !- X,Y,Z Vertex 2 {m}
  4.572, -9.144, 2.4384;                  !- X,Y,Z Vertex 3 {m}

OS:Surface,
  {0127745b-25ac-40fb-8842-6a58f7a30fba}, !- Handle
  Surface 11,                             !- Name
  Wall,                                   !- Surface Type
  ,                                       !- Construction Name
  {1347d649-1bf1-4267-89cc-349a9088d27d}, !- Space Name
  Outdoors,                               !- Outside Boundary Condition
  ,                                       !- Outside Boundary Condition Object
  SunExposed,                             !- Sun Exposure
  WindExposed,                            !- Wind Exposure
  ,                                       !- View Factor to Ground
  ,                                       !- Number of Vertices
  2.286, 0, 3.5814,                       !- X,Y,Z Vertex 1 {m}
  4.572, 0, 2.4384,                       !- X,Y,Z Vertex 2 {m}
  0, 0, 2.4384;                           !- X,Y,Z Vertex 3 {m}

OS:Space,
  {1347d649-1bf1-4267-89cc-349a9088d27d}, !- Handle
  finished attic space,                   !- Name
  {f2cc36f2-8deb-4de4-a8c8-4d774875c4cb}, !- Space Type Name
  ,                                       !- Default Construction Set Name
  ,                                       !- Default Schedule Set Name
  ,                                       !- Direction of Relative North {deg}
  ,                                       !- X Origin {m}
  ,                                       !- Y Origin {m}
  ,                                       !- Z Origin {m}
  ,                                       !- Building Story Name
  {395f6cd5-2d58-418e-8dc8-7a0f46275d1a}, !- Thermal Zone Name
  ,                                       !- Part of Total Floor Area
  ,                                       !- Design Specification Outdoor Air Object Name
  {836b9ab4-fd52-48bb-82ef-dd156aed783f}; !- Building Unit Name

OS:ThermalZone,
  {5b36014e-a5f1-4c74-a236-46372aec9625}, !- Handle
  living zone|unit 2,                     !- Name
  ,                                       !- Multiplier
  ,                                       !- Ceiling Height {m}
  ,                                       !- Volume {m3}
  ,                                       !- Floor Area {m2}
  ,                                       !- Zone Inside Convection Algorithm
  ,                                       !- Zone Outside Convection Algorithm
  ,                                       !- Zone Conditioning Equipment List Name
  {6e5914df-b43d-4008-b9a8-820a5a1575b5}, !- Zone Air Inlet Port List
  {f41d8c32-0b5b-4ad8-9d8e-ee47611a3a6d}, !- Zone Air Exhaust Port List
  {52504a7c-49c6-4636-bda9-596ca2e317ac}, !- Zone Air Node Name
  {2ea20b7c-82c8-4f8c-ac66-09a3eab02144}, !- Zone Return Air Port List
  ,                                       !- Primary Daylighting Control Name
  ,                                       !- Fraction of Zone Controlled by Primary Daylighting Control
  ,                                       !- Secondary Daylighting Control Name
  ,                                       !- Fraction of Zone Controlled by Secondary Daylighting Control
  ,                                       !- Illuminance Map Name
  ,                                       !- Group Rendering Name
  ,                                       !- Thermostat Name
  No;                                     !- Use Ideal Air Loads

OS:Node,
  {b5511e9f-1318-4bc1-8afc-a1d13feda79d}, !- Handle
  Node 2,                                 !- Name
  {52504a7c-49c6-4636-bda9-596ca2e317ac}, !- Inlet Port
  ;                                       !- Outlet Port

OS:Connection,
  {52504a7c-49c6-4636-bda9-596ca2e317ac}, !- Handle
  {7d81e091-0985-4029-87d6-5bd77fb9df91}, !- Name
  {5b36014e-a5f1-4c74-a236-46372aec9625}, !- Source Object
  11,                                     !- Outlet Port
  {b5511e9f-1318-4bc1-8afc-a1d13feda79d}, !- Target Object
  2;                                      !- Inlet Port

OS:PortList,
  {6e5914df-b43d-4008-b9a8-820a5a1575b5}, !- Handle
  {47a4ed7a-d5f1-44d5-853d-aaf3139d9f85}, !- Name
  {5b36014e-a5f1-4c74-a236-46372aec9625}; !- HVAC Component

OS:PortList,
  {f41d8c32-0b5b-4ad8-9d8e-ee47611a3a6d}, !- Handle
  {262c5457-e927-428c-b71b-79d3c6ba60de}, !- Name
  {5b36014e-a5f1-4c74-a236-46372aec9625}; !- HVAC Component

OS:PortList,
  {2ea20b7c-82c8-4f8c-ac66-09a3eab02144}, !- Handle
  {a056a4ee-9df9-473c-bb48-90c0216ce6b4}, !- Name
  {5b36014e-a5f1-4c74-a236-46372aec9625}; !- HVAC Component

OS:Sizing:Zone,
  {29e03303-6983-4dd1-9295-5d6327ddeb2d}, !- Handle
  {5b36014e-a5f1-4c74-a236-46372aec9625}, !- Zone or ZoneList Name
  SupplyAirTemperature,                   !- Zone Cooling Design Supply Air Temperature Input Method
  14,                                     !- Zone Cooling Design Supply Air Temperature {C}
  11.11,                                  !- Zone Cooling Design Supply Air Temperature Difference {deltaC}
  SupplyAirTemperature,                   !- Zone Heating Design Supply Air Temperature Input Method
  40,                                     !- Zone Heating Design Supply Air Temperature {C}
  11.11,                                  !- Zone Heating Design Supply Air Temperature Difference {deltaC}
  0.0085,                                 !- Zone Cooling Design Supply Air Humidity Ratio {kg-H2O/kg-air}
  0.008,                                  !- Zone Heating Design Supply Air Humidity Ratio {kg-H2O/kg-air}
  ,                                       !- Zone Heating Sizing Factor
  ,                                       !- Zone Cooling Sizing Factor
  DesignDay,                              !- Cooling Design Air Flow Method
  ,                                       !- Cooling Design Air Flow Rate {m3/s}
  ,                                       !- Cooling Minimum Air Flow per Zone Floor Area {m3/s-m2}
  ,                                       !- Cooling Minimum Air Flow {m3/s}
  ,                                       !- Cooling Minimum Air Flow Fraction
  DesignDay,                              !- Heating Design Air Flow Method
  ,                                       !- Heating Design Air Flow Rate {m3/s}
  ,                                       !- Heating Maximum Air Flow per Zone Floor Area {m3/s-m2}
  ,                                       !- Heating Maximum Air Flow {m3/s}
  ,                                       !- Heating Maximum Air Flow Fraction
  ,                                       !- Design Zone Air Distribution Effectiveness in Cooling Mode
  ,                                       !- Design Zone Air Distribution Effectiveness in Heating Mode
  No,                                     !- Account for Dedicated Outdoor Air System
  NeutralSupplyAir,                       !- Dedicated Outdoor Air System Control Strategy
  autosize,                               !- Dedicated Outdoor Air Low Setpoint Temperature for Design {C}
  autosize;                               !- Dedicated Outdoor Air High Setpoint Temperature for Design {C}

OS:ZoneHVAC:EquipmentList,
  {ef119ee2-de77-4f31-96d5-d0b8dbe56440}, !- Handle
  Zone HVAC Equipment List 2,             !- Name
  {5b36014e-a5f1-4c74-a236-46372aec9625}; !- Thermal Zone

OS:Space,
  {b81b9bcf-e5ec-48b0-a53f-0f1d4516ea2e}, !- Handle
  living space|unit 2|story 1,            !- Name
  {f2cc36f2-8deb-4de4-a8c8-4d774875c4cb}, !- Space Type Name
  ,                                       !- Default Construction Set Name
  ,                                       !- Default Schedule Set Name
  -0,                                     !- Direction of Relative North {deg}
  0,                                      !- X Origin {m}
  0,                                      !- Y Origin {m}
  0,                                      !- Z Origin {m}
  ,                                       !- Building Story Name
  {5b36014e-a5f1-4c74-a236-46372aec9625}, !- Thermal Zone Name
  ,                                       !- Part of Total Floor Area
  ,                                       !- Design Specification Outdoor Air Object Name
  {d0caa46d-c830-45fd-bb31-df6862ce5d53}; !- Building Unit Name

OS:Surface,
  {4b25e367-497d-443a-9a10-2e675271d8cb}, !- Handle
  Surface 12,                             !- Name
  RoofCeiling,                            !- Surface Type
  ,                                       !- Construction Name
  {b81b9bcf-e5ec-48b0-a53f-0f1d4516ea2e}, !- Space Name
  Surface,                                !- Outside Boundary Condition
  {80d746dd-c20b-4116-b2bc-3f8654788281}, !- Outside Boundary Condition Object
  NoSun,                                  !- Sun Exposure
  NoWind,                                 !- Wind Exposure
  ,                                       !- View Factor to Ground
  ,                                       !- Number of Vertices
  9.144, -9.144, 2.4384,                  !- X,Y,Z Vertex 1 {m}
  9.144, 0, 2.4384,                       !- X,Y,Z Vertex 2 {m}
  4.572, 0, 2.4384,                       !- X,Y,Z Vertex 3 {m}
  4.572, -9.144, 2.4384;                  !- X,Y,Z Vertex 4 {m}

OS:Surface,
  {b3610739-da8b-4079-a0a3-13e544ede933}, !- Handle
  Surface 13,                             !- Name
  Wall,                                   !- Surface Type
  ,                                       !- Construction Name
  {b81b9bcf-e5ec-48b0-a53f-0f1d4516ea2e}, !- Space Name
  Outdoors,                               !- Outside Boundary Condition
  ,                                       !- Outside Boundary Condition Object
  SunExposed,                             !- Sun Exposure
  WindExposed,                            !- Wind Exposure
  ,                                       !- View Factor to Ground
  ,                                       !- Number of Vertices
  9.144, 0, 2.4384,                       !- X,Y,Z Vertex 1 {m}
  9.144, 0, 0,                            !- X,Y,Z Vertex 2 {m}
  4.572, 0, 0,                            !- X,Y,Z Vertex 3 {m}
  4.572, 0, 2.4384;                       !- X,Y,Z Vertex 4 {m}

OS:Surface,
  {9342af03-153e-4a3f-a48f-fa579254a4aa}, !- Handle
  Surface 14,                             !- Name
  Wall,                                   !- Surface Type
  ,                                       !- Construction Name
  {b81b9bcf-e5ec-48b0-a53f-0f1d4516ea2e}, !- Space Name
  Surface,                                !- Outside Boundary Condition
  {ca07bfe1-3e88-45e1-be72-b08ef5218ea5}, !- Outside Boundary Condition Object
  NoSun,                                  !- Sun Exposure
  NoWind,                                 !- Wind Exposure
  ,                                       !- View Factor to Ground
  ,                                       !- Number of Vertices
  9.144, -9.144, 2.4384,                  !- X,Y,Z Vertex 1 {m}
  9.144, -9.144, 0,                       !- X,Y,Z Vertex 2 {m}
  9.144, 0, 0,                            !- X,Y,Z Vertex 3 {m}
  9.144, 0, 2.4384;                       !- X,Y,Z Vertex 4 {m}

OS:Surface,
  {ca437988-6b39-4b46-a42e-0ab6386cd15f}, !- Handle
  Surface 15,                             !- Name
  Wall,                                   !- Surface Type