!- NOTE: Auto-generated from /test/osw_files/SFA_4units_1story_FB_UA_3Beds_2Baths_Denver_WHTank.osw

OS:Version,
  {49bd226e-c9bb-423b-9e83-ab768707ecaf}, !- Handle
  2.9.0;                                  !- Version Identifier

OS:SimulationControl,
  {a927bab4-19f3-4bca-be4f-d7c6822e4852}, !- Handle
  ,                                       !- Do Zone Sizing Calculation
  ,                                       !- Do System Sizing Calculation
  ,                                       !- Do Plant Sizing Calculation
  No;                                     !- Run Simulation for Sizing Periods

OS:Timestep,
  {299c6053-8b1f-4379-bfb7-9633d1fbde18}, !- Handle
  6;                                      !- Number of Timesteps per Hour

OS:ShadowCalculation,
  {1ad8a51a-529b-40cb-b6a0-bf78223aee52}, !- Handle
  20,                                     !- Calculation Frequency
  200;                                    !- Maximum Figures in Shadow Overlap Calculations

OS:SurfaceConvectionAlgorithm:Outside,
  {cd166eb8-d090-42aa-93b8-39e2be699289}, !- Handle
  DOE-2;                                  !- Algorithm

OS:SurfaceConvectionAlgorithm:Inside,
  {484a5132-4bd4-4eea-9595-e1b708685965}, !- Handle
  TARP;                                   !- Algorithm

OS:ZoneCapacitanceMultiplier:ResearchSpecial,
  {da32d5c2-bd85-4c07-ae2b-516750e94a93}, !- Handle
  ,                                       !- Temperature Capacity Multiplier
  15,                                     !- Humidity Capacity Multiplier
  ;                                       !- Carbon Dioxide Capacity Multiplier

OS:RunPeriod,
  {8cdef1e8-24a9-4b4c-93ff-84fa4a4b3eaa}, !- Handle
  Run Period 1,                           !- Name
  1,                                      !- Begin Month
  1,                                      !- Begin Day of Month
  12,                                     !- End Month
  31,                                     !- End Day of Month
  ,                                       !- Use Weather File Holidays and Special Days
  ,                                       !- Use Weather File Daylight Saving Period
  ,                                       !- Apply Weekend Holiday Rule
  ,                                       !- Use Weather File Rain Indicators
  ,                                       !- Use Weather File Snow Indicators
  ;                                       !- Number of Times Runperiod to be Repeated

OS:YearDescription,
  {db3c7453-5b91-4fa2-b008-a37f00be2082}, !- Handle
  2007,                                   !- Calendar Year
  ,                                       !- Day of Week for Start Day
  ;                                       !- Is Leap Year

OS:ThermalZone,
  {fc34c30f-cde1-4c2c-a306-5cfb18b0e88a}, !- Handle
  living zone,                            !- Name
  ,                                       !- Multiplier
  ,                                       !- Ceiling Height {m}
  ,                                       !- Volume {m3}
  ,                                       !- Floor Area {m2}
  ,                                       !- Zone Inside Convection Algorithm
  ,                                       !- Zone Outside Convection Algorithm
  ,                                       !- Zone Conditioning Equipment List Name
  {37e3258f-f2de-4fba-a54a-3f4fbd34d8ec}, !- Zone Air Inlet Port List
  {362bfa0d-d844-4135-93b5-bb492ae0fd12}, !- Zone Air Exhaust Port List
  {280c574e-282a-4731-ad39-022c20618e9a}, !- Zone Air Node Name
  {9eb235ef-7324-4e81-a483-ec9db3aae861}, !- Zone Return Air Port List
  ,                                       !- Primary Daylighting Control Name
  ,                                       !- Fraction of Zone Controlled by Primary Daylighting Control
  ,                                       !- Secondary Daylighting Control Name
  ,                                       !- Fraction of Zone Controlled by Secondary Daylighting Control
  ,                                       !- Illuminance Map Name
  ,                                       !- Group Rendering Name
  ,                                       !- Thermostat Name
  No;                                     !- Use Ideal Air Loads

OS:Node,
  {5308c4b5-4523-45c1-a963-16b7587409d4}, !- Handle
  Node 1,                                 !- Name
  {280c574e-282a-4731-ad39-022c20618e9a}, !- Inlet Port
  ;                                       !- Outlet Port

OS:Connection,
  {280c574e-282a-4731-ad39-022c20618e9a}, !- Handle
  {9867a26d-6a64-4de7-884c-fc721ebd5c33}, !- Name
  {fc34c30f-cde1-4c2c-a306-5cfb18b0e88a}, !- Source Object
  11,                                     !- Outlet Port
  {5308c4b5-4523-45c1-a963-16b7587409d4}, !- Target Object
  2;                                      !- Inlet Port

OS:PortList,
  {37e3258f-f2de-4fba-a54a-3f4fbd34d8ec}, !- Handle
  {ff81f9e5-a55c-4713-81e6-9334d33b1260}, !- Name
  {fc34c30f-cde1-4c2c-a306-5cfb18b0e88a}; !- HVAC Component

OS:PortList,
  {362bfa0d-d844-4135-93b5-bb492ae0fd12}, !- Handle
  {64a76cff-9cf3-4075-9bc6-d670ec96c3d7}, !- Name
  {fc34c30f-cde1-4c2c-a306-5cfb18b0e88a}; !- HVAC Component

OS:PortList,
  {9eb235ef-7324-4e81-a483-ec9db3aae861}, !- Handle
  {c1db5ded-0325-451d-929a-42b1ff5bdfce}, !- Name
  {fc34c30f-cde1-4c2c-a306-5cfb18b0e88a}; !- HVAC Component

OS:Sizing:Zone,
  {dd47f3d5-0274-4052-af32-1803666ad5a0}, !- Handle
  {fc34c30f-cde1-4c2c-a306-5cfb18b0e88a}, !- Zone or ZoneList Name
  SupplyAirTemperature,                   !- Zone Cooling Design Supply Air Temperature Input Method
  14,                                     !- Zone Cooling Design Supply Air Temperature {C}
  11.11,                                  !- Zone Cooling Design Supply Air Temperature Difference {deltaC}
  SupplyAirTemperature,                   !- Zone Heating Design Supply Air Temperature Input Method
  40,                                     !- Zone Heating Design Supply Air Temperature {C}
  11.11,                                  !- Zone Heating Design Supply Air Temperature Difference {deltaC}
  0.0085,                                 !- Zone Cooling Design Supply Air Humidity Ratio {kg-H2O/kg-air}
  0.008,                                  !- Zone Heating Design Supply Air Humidity Ratio {kg-H2O/kg-air}
  ,                                       !- Zone Heating Sizing Factor
  ,                                       !- Zone Cooling Sizing Factor
  DesignDay,                              !- Cooling Design Air Flow Method
  ,                                       !- Cooling Design Air Flow Rate {m3/s}
  ,                                       !- Cooling Minimum Air Flow per Zone Floor Area {m3/s-m2}
  ,                                       !- Cooling Minimum Air Flow {m3/s}
  ,                                       !- Cooling Minimum Air Flow Fraction
  DesignDay,                              !- Heating Design Air Flow Method
  ,                                       !- Heating Design Air Flow Rate {m3/s}
  ,                                       !- Heating Maximum Air Flow per Zone Floor Area {m3/s-m2}
  ,                                       !- Heating Maximum Air Flow {m3/s}
  ,                                       !- Heating Maximum Air Flow Fraction
  ,                                       !- Design Zone Air Distribution Effectiveness in Cooling Mode
  ,                                       !- Design Zone Air Distribution Effectiveness in Heating Mode
  No,                                     !- Account for Dedicated Outdoor Air System
  NeutralSupplyAir,                       !- Dedicated Outdoor Air System Control Strategy
  autosize,                               !- Dedicated Outdoor Air Low Setpoint Temperature for Design {C}
  autosize;                               !- Dedicated Outdoor Air High Setpoint Temperature for Design {C}

OS:ZoneHVAC:EquipmentList,
  {8e03ba4b-1482-4cfc-b6a8-0aa3fed6ded2}, !- Handle
  Zone HVAC Equipment List 1,             !- Name
  {fc34c30f-cde1-4c2c-a306-5cfb18b0e88a}; !- Thermal Zone

OS:Space,
  {acd3188b-9355-42e0-ae28-e61e24086e24}, !- Handle
  living space,                           !- Name
  {e89cbe5e-4f1d-4d46-985b-2d8f61e45825}, !- Space Type Name
  ,                                       !- Default Construction Set Name
  ,                                       !- Default Schedule Set Name
  ,                                       !- Direction of Relative North {deg}
  ,                                       !- X Origin {m}
  ,                                       !- Y Origin {m}
  ,                                       !- Z Origin {m}
  ,                                       !- Building Story Name
  {fc34c30f-cde1-4c2c-a306-5cfb18b0e88a}, !- Thermal Zone Name
  ,                                       !- Part of Total Floor Area
  ,                                       !- Design Specification Outdoor Air Object Name
  {5066d596-cbe1-4b72-a416-68ad524bcbaf}; !- Building Unit Name

OS:Surface,
  {5160c3bd-3478-482e-a8cf-bd825b42657b}, !- Handle
  Surface 1,                              !- Name
  Floor,                                  !- Surface Type
  ,                                       !- Construction Name
  {acd3188b-9355-42e0-ae28-e61e24086e24}, !- Space Name
  Surface,                                !- Outside Boundary Condition
  {0b390732-5542-453a-b429-4ab1759fddaa}, !- Outside Boundary Condition Object
  NoSun,                                  !- Sun Exposure
  NoWind,                                 !- Wind Exposure
  ,                                       !- View Factor to Ground
  ,                                       !- Number of Vertices
  0, -9.144, 0,                           !- X,Y,Z Vertex 1 {m}
  0, 0, 0,                                !- X,Y,Z Vertex 2 {m}
  4.572, 0, 0,                            !- X,Y,Z Vertex 3 {m}
  4.572, -9.144, 0;                       !- X,Y,Z Vertex 4 {m}

OS:Surface,
  {2147627c-5fc8-42db-ae2b-2a7c2bd2fe43}, !- Handle
  Surface 2,                              !- Name
  Wall,                                   !- Surface Type
  ,                                       !- Construction Name
  {acd3188b-9355-42e0-ae28-e61e24086e24}, !- Space Name
  Outdoors,                               !- Outside Boundary Condition
  ,                                       !- Outside Boundary Condition Object
  SunExposed,                             !- Sun Exposure
  WindExposed,                            !- Wind Exposure
  ,                                       !- View Factor to Ground
  ,                                       !- Number of Vertices
  0, 0, 2.4384,                           !- X,Y,Z Vertex 1 {m}
  0, 0, 0,                                !- X,Y,Z Vertex 2 {m}
  0, -9.144, 0,                           !- X,Y,Z Vertex 3 {m}
  0, -9.144, 2.4384;                      !- X,Y,Z Vertex 4 {m}

OS:Surface,
  {0ff5bdc1-58ba-4d44-88d9-53d19ae37703}, !- Handle
  Surface 3,                              !- Name
  Wall,                                   !- Surface Type
  ,                                       !- Construction Name
  {acd3188b-9355-42e0-ae28-e61e24086e24}, !- Space Name
  Outdoors,                               !- Outside Boundary Condition
  ,                                       !- Outside Boundary Condition Object
  SunExposed,                             !- Sun Exposure
  WindExposed,                            !- Wind Exposure
  ,                                       !- View Factor to Ground
  ,                                       !- Number of Vertices
  4.572, 0, 2.4384,                       !- X,Y,Z Vertex 1 {m}
  4.572, 0, 0,                            !- X,Y,Z Vertex 2 {m}
  0, 0, 0,                                !- X,Y,Z Vertex 3 {m}
  0, 0, 2.4384;                           !- X,Y,Z Vertex 4 {m}

OS:Surface,
  {c559f55e-c737-4d45-a842-b9f8aaf65466}, !- Handle
  Surface 4,                              !- Name
  Wall,                                   !- Surface Type
  ,                                       !- Construction Name
  {acd3188b-9355-42e0-ae28-e61e24086e24}, !- Space Name
  Adiabatic,                              !- Outside Boundary Condition
  ,                                       !- Outside Boundary Condition Object
  NoSun,                                  !- Sun Exposure
  NoWind,                                 !- Wind Exposure
  ,                                       !- View Factor to Ground
  ,                                       !- Number of Vertices
  4.572, -9.144, 2.4384,                  !- X,Y,Z Vertex 1 {m}
  4.572, -9.144, 0,                       !- X,Y,Z Vertex 2 {m}
  4.572, 0, 0,                            !- X,Y,Z Vertex 3 {m}
  4.572, 0, 2.4384;                       !- X,Y,Z Vertex 4 {m}

OS:Surface,
  {05f07b8b-26c6-46d5-87fa-01c4c651f55e}, !- Handle
  Surface 5,                              !- Name
  Wall,                                   !- Surface Type
  ,                                       !- Construction Name
  {acd3188b-9355-42e0-ae28-e61e24086e24}, !- Space Name
  Outdoors,                               !- Outside Boundary Condition
  ,                                       !- Outside Boundary Condition Object
  SunExposed,                             !- Sun Exposure
  WindExposed,                            !- Wind Exposure
  ,                                       !- View Factor to Ground
  ,                                       !- Number of Vertices
  0, -9.144, 2.4384,                      !- X,Y,Z Vertex 1 {m}
  0, -9.144, 0,                           !- X,Y,Z Vertex 2 {m}
  4.572, -9.144, 0,                       !- X,Y,Z Vertex 3 {m}
  4.572, -9.144, 2.4384;                  !- X,Y,Z Vertex 4 {m}

OS:Surface,
  {ff2a5ab2-953a-4029-9fde-6208505913b0}, !- Handle
  Surface 6,                              !- Name
  RoofCeiling,                            !- Surface Type
  ,                                       !- Construction Name
  {acd3188b-9355-42e0-ae28-e61e24086e24}, !- Space Name
  Surface,                                !- Outside Boundary Condition
  {2b4e0b7a-8cb8-4504-96b3-338334ae2d64}, !- Outside Boundary Condition Object
  NoSun,                                  !- Sun Exposure
  NoWind,                                 !- Wind Exposure
  ,                                       !- View Factor to Ground
  ,                                       !- Number of Vertices
  4.572, -9.144, 2.4384,                  !- X,Y,Z Vertex 1 {m}
  4.572, 0, 2.4384,                       !- X,Y,Z Vertex 2 {m}
  0, 0, 2.4384,                           !- X,Y,Z Vertex 3 {m}
  0, -9.144, 2.4384;                      !- X,Y,Z Vertex 4 {m}

OS:SpaceType,
  {e89cbe5e-4f1d-4d46-985b-2d8f61e45825}, !- Handle
  Space Type 1,                           !- Name
  ,                                       !- Default Construction Set Name
  ,                                       !- Default Schedule Set Name
  ,                                       !- Group Rendering Name
  ,                                       !- Design Specification Outdoor Air Object Name
  ,                                       !- Standards Template
  ,                                       !- Standards Building Type
  living;                                 !- Standards Space Type

OS:Space,
  {0081ae4c-72f8-40c4-a34f-c7bd70c86dac}, !- Handle
  finished basement space,                !- Name
  {eb131c9e-eb8a-4037-b990-4382697bc3c6}, !- Space Type Name
  ,                                       !- Default Construction Set Name
  ,                                       !- Default Schedule Set Name
  -0,                                     !- Direction of Relative North {deg}
  0,                                      !- X Origin {m}
  0,                                      !- Y Origin {m}
  0,                                      !- Z Origin {m}
  ,                                       !- Building Story Name
  {e87a8f03-444d-4401-a925-9f3032d762a5}, !- Thermal Zone Name
  ,                                       !- Part of Total Floor Area
  ,                                       !- Design Specification Outdoor Air Object Name
  {5066d596-cbe1-4b72-a416-68ad524bcbaf}; !- Building Unit Name

OS:Surface,
  {75938f8a-d248-4a15-b333-8ec1106b24ac}, !- Handle
  Surface 12,                             !- Name
  Floor,                                  !- Surface Type
  ,                                       !- Construction Name
  {0081ae4c-72f8-40c4-a34f-c7bd70c86dac}, !- Space Name
  Foundation,                             !- Outside Boundary Condition
  ,                                       !- Outside Boundary Condition Object
  NoSun,                                  !- Sun Exposure
  NoWind,                                 !- Wind Exposure
  ,                                       !- View Factor to Ground
  ,                                       !- Number of Vertices
  0, -9.144, -2.4384,                     !- X,Y,Z Vertex 1 {m}
  0, 0, -2.4384,                          !- X,Y,Z Vertex 2 {m}
  4.572, 0, -2.4384,                      !- X,Y,Z Vertex 3 {m}
  4.572, -9.144, -2.4384;                 !- X,Y,Z Vertex 4 {m}

OS:Surface,
  {02a4bafe-7100-46e6-aaad-d471981b2017}, !- Handle
  Surface 13,                             !- Name
  Wall,                                   !- Surface Type
  ,                                       !- Construction Name
  {0081ae4c-72f8-40c4-a34f-c7bd70c86dac}, !- Space Name
  Foundation,                             !- Outside Boundary Condition
  ,                                       !- Outside Boundary Condition Object
  NoSun,                                  !- Sun Exposure
  NoWind,                                 !- Wind Exposure
  ,                                       !- View Factor to Ground
  ,                                       !- Number of Vertices
  0, 0, 0,                                !- X,Y,Z Vertex 1 {m}
  0, 0, -2.4384,                          !- X,Y,Z Vertex 2 {m}
  0, -9.144, -2.4384,                     !- X,Y,Z Vertex 3 {m}
  0, -9.144, 0;                           !- X,Y,Z Vertex 4 {m}

OS:Surface,
  {1c0b9432-9653-4689-9747-108d0ddb3d67}, !- Handle
  Surface 14,                             !- Name
  Wall,                                   !- Surface Type
  ,                                       !- Construction Name
  {0081ae4c-72f8-40c4-a34f-c7bd70c86dac}, !- Space Name
  Foundation,                             !- Outside Boundary Condition
  ,                                       !- Outside Boundary Condition Object
  NoSun,                                  !- Sun Exposure
  NoWind,                                 !- Wind Exposure
  ,                                       !- View Factor to Ground
  ,                                       !- Number of Vertices
  4.572, 0, 0,                            !- X,Y,Z Vertex 1 {m}
  4.572, 0, -2.4384,                      !- X,Y,Z Vertex 2 {m}
  0, 0, -2.4384,                          !- X,Y,Z Vertex 3 {m}
  0, 0, 0;                                !- X,Y,Z Vertex 4 {m}

OS:Surface,
  {6758bbc2-2b85-4ae9-8852-e868d016161f}, !- Handle
  Surface 15,                             !- Name
  Wall,                                   !- Surface Type
  ,                                       !- Construction Name
  {0081ae4c-72f8-40c4-a34f-c7bd70c86dac}, !- Space Name
  Adiabatic,                              !- Outside Boundary Condition
  ,                                       !- Outside Boundary Condition Object
  NoSun,                                  !- Sun Exposure
  NoWind,                                 !- Wind Exposure
  ,                                       !- View Factor to Ground
  ,                                       !- Number of Vertices
  4.572, -9.144, 0,                       !- X,Y,Z Vertex 1 {m}
  4.572, -9.144, -2.4384,                 !- X,Y,Z Vertex 2 {m}
  4.572, 0, -2.4384,                      !- X,Y,Z Vertex 3 {m}
  4.572, 0, 0;                            !- X,Y,Z Vertex 4 {m}

OS:Surface,
  {f0918961-2d94-457b-b00d-445b24e78974}, !- Handle
  Surface 16,                             !- Name
  Wall,                                   !- Surface Type
  ,                                       !- Construction Name
  {0081ae4c-72f8-40c4-a34f-c7bd70c86dac}, !- Space Name
  Foundation,                             !- Outside Boundary Condition
  ,                                       !- Outside Boundary Condition Object
  NoSun,                                  !- Sun Exposure
  NoWind,                                 !- Wind Exposure
  ,                                       !- View Factor to Ground
  ,                                       !- Number of Vertices
  0, -9.144, 0,                           !- X,Y,Z Vertex 1 {m}
  0, -9.144, -2.4384,                     !- X,Y,Z Vertex 2 {m}
  4.572, -9.144, -2.4384,                 !- X,Y,Z Vertex 3 {m}
  4.572, -9.144, 0;                       !- X,Y,Z Vertex 4 {m}

OS:Surface,
  {0b390732-5542-453a-b429-4ab1759fddaa}, !- Handle
  Surface 17,                             !- Name
  RoofCeiling,                            !- Surface Type
  ,                                       !- Construction Name
  {0081ae4c-72f8-40c4-a34f-c7bd70c86dac}, !- Space Name
  Surface,                                !- Outside Boundary Condition
  {5160c3bd-3478-482e-a8cf-bd825b42657b}, !- Outside Boundary Condition Object
  NoSun,                                  !- Sun Exposure
  NoWind,                                 !- Wind Exposure
  ,                                       !- View Factor to Ground
  ,                                       !- Number of Vertices
  4.572, -9.144, 0,                       !- X,Y,Z Vertex 1 {m}
  4.572, 0, 0,                            !- X,Y,Z Vertex 2 {m}
  0, 0, 0,                                !- X,Y,Z Vertex 3 {m}
  0, -9.144, 0;                           !- X,Y,Z Vertex 4 {m}

OS:ThermalZone,
  {e87a8f03-444d-4401-a925-9f3032d762a5}, !- Handle
  finished basement zone,                 !- Name
  ,                                       !- Multiplier
  ,                                       !- Ceiling Height {m}
  ,                                       !- Volume {m3}
  ,                                       !- Floor Area {m2}
  ,                                       !- Zone Inside Convection Algorithm
  ,                                       !- Zone Outside Convection Algorithm
  ,                                       !- Zone Conditioning Equipment List Name
  {a0dcde58-e4c5-41ac-b003-77b0af7ce469}, !- Zone Air Inlet Port List
  {b25a2a2b-31eb-4cc6-8e10-3fede2b30ac1}, !- Zone Air Exhaust Port List
  {eff54329-e986-49bf-b066-46a265961999}, !- Zone Air Node Name
  {374d5560-7432-47d7-95a5-c91ada8e0adf}, !- Zone Return Air Port List
  ,                                       !- Primary Daylighting Control Name
  ,                                       !- Fraction of Zone Controlled by Primary Daylighting Control
  ,                                       !- Secondary Daylighting Control Name
  ,                                       !- Fraction of Zone Controlled by Secondary Daylighting Control
  ,                                       !- Illuminance Map Name
  ,                                       !- Group Rendering Name
  ,                                       !- Thermostat Name
  No;                                     !- Use Ideal Air Loads

OS:Node,
  {be63987e-bc42-46ed-ad22-49117ba0af02}, !- Handle
  Node 2,                                 !- Name
  {eff54329-e986-49bf-b066-46a265961999}, !- Inlet Port
  ;                                       !- Outlet Port

OS:Connection,
  {eff54329-e986-49bf-b066-46a265961999}, !- Handle
  {6debeab7-ac7d-4885-98bc-f708146231bd}, !- Name
  {e87a8f03-444d-4401-a925-9f3032d762a5}, !- Source Object
  11,                                     !- Outlet Port
  {be63987e-bc42-46ed-ad22-49117ba0af02}, !- Target Object
  2;                                      !- Inlet Port

OS:PortList,
  {a0dcde58-e4c5-41ac-b003-77b0af7ce469}, !- Handle
  {5b5b885e-28b0-4357-ba30-7a365c1841f2}, !- Name
  {e87a8f03-444d-4401-a925-9f3032d762a5}; !- HVAC Component

OS:PortList,
  {b25a2a2b-31eb-4cc6-8e10-3fede2b30ac1}, !- Handle
  {98188ab9-7b36-46ee-a9ff-c9b1feff9c47}, !- Name
  {e87a8f03-444d-4401-a925-9f3032d762a5}; !- HVAC Component

OS:PortList,
  {374d5560-7432-47d7-95a5-c91ada8e0adf}, !- Handle
  {f740e449-6e1e-4965-9eb4-278aa049926c}, !- Name
  {e87a8f03-444d-4401-a925-9f3032d762a5}; !- HVAC Component

OS:Sizing:Zone,
  {e1208135-2d9d-485c-905a-f6e99e32b024}, !- Handle
  {e87a8f03-444d-4401-a925-9f3032d762a5}, !- Zone or ZoneList Name
  SupplyAirTemperature,                   !- Zone Cooling Design Supply Air Temperature Input Method
  14,                                     !- Zone Cooling Design Supply Air Temperature {C}
  11.11,                                  !- Zone Cooling Design Supply Air Temperature Difference {deltaC}
  SupplyAirTemperature,                   !- Zone Heating Design Supply Air Temperature Input Method
  40,                                     !- Zone Heating Design Supply Air Temperature {C}
  11.11,                                  !- Zone Heating Design Supply Air Temperature Difference {deltaC}
  0.0085,                                 !- Zone Cooling Design Supply Air Humidity Ratio {kg-H2O/kg-air}
  0.008,                                  !- Zone Heating Design Supply Air Humidity Ratio {kg-H2O/kg-air}
  ,                                       !- Zone Heating Sizing Factor
  ,                                       !- Zone Cooling Sizing Factor
  DesignDay,                              !- Cooling Design Air Flow Method
  ,                                       !- Cooling Design Air Flow Rate {m3/s}
  ,                                       !- Cooling Minimum Air Flow per Zone Floor Area {m3/s-m2}
  ,                                       !- Cooling Minimum Air Flow {m3/s}
  ,                                       !- Cooling Minimum Air Flow Fraction
  DesignDay,                              !- Heating Design Air Flow Method
  ,                                       !- Heating Design Air Flow Rate {m3/s}
  ,                                       !- Heating Maximum Air Flow per Zone Floor Area {m3/s-m2}
  ,                                       !- Heating Maximum Air Flow {m3/s}
  ,                                       !- Heating Maximum Air Flow Fraction
  ,                                       !- Design Zone Air Distribution Effectiveness in Cooling Mode
  ,                                       !- Design Zone Air Distribution Effectiveness in Heating Mode
  No,                                     !- Account for Dedicated Outdoor Air System
  NeutralSupplyAir,                       !- Dedicated Outdoor Air System Control Strategy
  autosize,                               !- Dedicated Outdoor Air Low Setpoint Temperature for Design {C}
  autosize;                               !- Dedicated Outdoor Air High Setpoint Temperature for Design {C}

OS:ZoneHVAC:EquipmentList,
  {059d7a92-4011-4ee8-abd3-49e99e6f1cb6}, !- Handle
  Zone HVAC Equipment List 2,             !- Name
  {e87a8f03-444d-4401-a925-9f3032d762a5}; !- Thermal Zone

OS:SpaceType,
  {eb131c9e-eb8a-4037-b990-4382697bc3c6}, !- Handle
  Space Type 2,                           !- Name
  ,                                       !- Default Construction Set Name
  ,                                       !- Default Schedule Set Name
  ,                                       !- Group Rendering Name
  ,                                       !- Design Specification Outdoor Air Object Name
  ,                                       !- Standards Template
  ,                                       !- Standards Building Type
  finished basement;                      !- Standards Space Type

OS:Surface,
  {2b4e0b7a-8cb8-4504-96b3-338334ae2d64}, !- Handle
  Surface 7,                              !- Name
  Floor,                                  !- Surface Type
  ,                                       !- Construction Name
  {52f71a91-4844-4d0a-9282-f20fc383f650}, !- Space Name
  Surface,                                !- Outside Boundary Condition
  {ff2a5ab2-953a-4029-9fde-6208505913b0}, !- Outside Boundary Condition Object
  NoSun,                                  !- Sun Exposure
  NoWind,                                 !- Wind Exposure
  ,                                       !- View Factor to Ground
  ,                                       !- Number of Vertices
  0, -9.144, 2.4384,                      !- X,Y,Z Vertex 1 {m}
  0, 0, 2.4384,                           !- X,Y,Z Vertex 2 {m}
  4.572, 0, 2.4384,                       !- X,Y,Z Vertex 3 {m}
  4.572, -9.144, 2.4384;                  !- X,Y,Z Vertex 4 {m}

OS:Surface,
  {3f799c4f-86f1-4a69-8fc4-f67d82f16cec}, !- Handle
  Surface 8,                              !- Name
  RoofCeiling,                            !- Surface Type
  ,                                       !- Construction Name
  {52f71a91-4844-4d0a-9282-f20fc383f650}, !- Space Name
  Outdoors,                               !- Outside Boundary Condition
  ,                                       !- Outside Boundary Condition Object
  SunExposed,                             !- Sun Exposure
  WindExposed,                            !- Wind Exposure
  ,                                       !- View Factor to Ground
  ,                                       !- Number of Vertices
  0, -4.572, 5.0292,                      !- X,Y,Z Vertex 1 {m}
  4.572, -4.572, 5.0292,                  !- X,Y,Z Vertex 2 {m}
  4.572, 0, 2.7432,                       !- X,Y,Z Vertex 3 {m}
  0, 0, 2.7432;                           !- X,Y,Z Vertex 4 {m}

OS:Surface,
  {d701f3a1-bd20-47ed-afec-85bc29fc5af9}, !- Handle
  Surface 9,                              !- Name
  RoofCeiling,                            !- Surface Type
  ,                                       !- Construction Name
  {52f71a91-4844-4d0a-9282-f20fc383f650}, !- Space Name