!- NOTE: Auto-generated from /test/osw_files/SFA_4units_1story_SL_UA_3Beds_2Baths_Denver.osw

OS:Version,
  {b6399ec7-8e03-40b0-9ec7-87171ebb8e60}, !- Handle
  2.8.1;                                  !- Version Identifier

OS:SimulationControl,
  {906277bc-0a38-4607-983c-c7b737854dec}, !- Handle
  ,                                       !- Do Zone Sizing Calculation
  ,                                       !- Do System Sizing Calculation
  ,                                       !- Do Plant Sizing Calculation
  No;                                     !- Run Simulation for Sizing Periods

OS:Timestep,
  {160a2e8d-b01a-44f4-a7d0-86fb14abf7c9}, !- Handle
  6;                                      !- Number of Timesteps per Hour

OS:ShadowCalculation,
  {04d53e72-66e0-4244-a62c-f2a1fae790b6}, !- Handle
  20,                                     !- Calculation Frequency
  200;                                    !- Maximum Figures in Shadow Overlap Calculations

OS:SurfaceConvectionAlgorithm:Outside,
  {06ee40e9-f729-4006-b8ba-90135ca422f2}, !- Handle
  DOE-2;                                  !- Algorithm

OS:SurfaceConvectionAlgorithm:Inside,
  {ae0c8791-92cd-47f2-8452-51880abcc7a4}, !- Handle
  TARP;                                   !- Algorithm

OS:ZoneCapacitanceMultiplier:ResearchSpecial,
  {2f6bd5f7-9e69-4069-a8f5-d4a0acc30d43}, !- Handle
  ,                                       !- Temperature Capacity Multiplier
  15,                                     !- Humidity Capacity Multiplier
  ;                                       !- Carbon Dioxide Capacity Multiplier

OS:RunPeriod,
  {7b0fc298-b73e-4ca5-a726-8424085a5c69}, !- Handle
  Run Period 1,                           !- Name
  1,                                      !- Begin Month
  1,                                      !- Begin Day of Month
  12,                                     !- End Month
  31,                                     !- End Day of Month
  ,                                       !- Use Weather File Holidays and Special Days
  ,                                       !- Use Weather File Daylight Saving Period
  ,                                       !- Apply Weekend Holiday Rule
  ,                                       !- Use Weather File Rain Indicators
  ,                                       !- Use Weather File Snow Indicators
  ;                                       !- Number of Times Runperiod to be Repeated

OS:ThermalZone,
  {fa6bc99f-f5a9-4047-a37f-2762dcfea11b}, !- Handle
  living zone,                            !- Name
  ,                                       !- Multiplier
  ,                                       !- Ceiling Height {m}
  ,                                       !- Volume {m3}
  ,                                       !- Floor Area {m2}
  ,                                       !- Zone Inside Convection Algorithm
  ,                                       !- Zone Outside Convection Algorithm
  ,                                       !- Zone Conditioning Equipment List Name
  {d890db3c-4d87-45ee-98bd-bdb09448562c}, !- Zone Air Inlet Port List
  {dc8f854d-fb8b-4536-9088-e928edb4b7d9}, !- Zone Air Exhaust Port List
  {57bb5649-210b-418d-9cfe-3efad06f0edb}, !- Zone Air Node Name
  {04097e4e-2bb8-4db4-b00a-f91e38b5e191}, !- Zone Return Air Port List
  ,                                       !- Primary Daylighting Control Name
  ,                                       !- Fraction of Zone Controlled by Primary Daylighting Control
  ,                                       !- Secondary Daylighting Control Name
  ,                                       !- Fraction of Zone Controlled by Secondary Daylighting Control
  ,                                       !- Illuminance Map Name
  ,                                       !- Group Rendering Name
  ,                                       !- Thermostat Name
  No;                                     !- Use Ideal Air Loads

OS:Node,
  {c388218e-d2d5-4fb7-87b5-086d2bb7ffb8}, !- Handle
  Node 1,                                 !- Name
  {57bb5649-210b-418d-9cfe-3efad06f0edb}, !- Inlet Port
  ;                                       !- Outlet Port

OS:Connection,
  {57bb5649-210b-418d-9cfe-3efad06f0edb}, !- Handle
  {49544479-289e-4c99-911d-aa674c4d69cc}, !- Name
  {fa6bc99f-f5a9-4047-a37f-2762dcfea11b}, !- Source Object
  11,                                     !- Outlet Port
  {c388218e-d2d5-4fb7-87b5-086d2bb7ffb8}, !- Target Object
  2;                                      !- Inlet Port

OS:PortList,
  {d890db3c-4d87-45ee-98bd-bdb09448562c}, !- Handle
  {5e631cf9-25bb-475c-9a5d-687d069ae009}, !- Name
  {fa6bc99f-f5a9-4047-a37f-2762dcfea11b}; !- HVAC Component

OS:PortList,
  {dc8f854d-fb8b-4536-9088-e928edb4b7d9}, !- Handle
  {4d674bff-fa4b-4f10-a710-036817684801}, !- Name
  {fa6bc99f-f5a9-4047-a37f-2762dcfea11b}; !- HVAC Component

OS:PortList,
  {04097e4e-2bb8-4db4-b00a-f91e38b5e191}, !- Handle
  {56657612-b8e1-4017-9498-cd5a88a00db5}, !- Name
  {fa6bc99f-f5a9-4047-a37f-2762dcfea11b}; !- HVAC Component

OS:Sizing:Zone,
  {cef094a9-c5b6-4c47-8dec-902f0ace97bf}, !- Handle
  {fa6bc99f-f5a9-4047-a37f-2762dcfea11b}, !- Zone or ZoneList Name
  SupplyAirTemperature,                   !- Zone Cooling Design Supply Air Temperature Input Method
  14,                                     !- Zone Cooling Design Supply Air Temperature {C}
  11.11,                                  !- Zone Cooling Design Supply Air Temperature Difference {deltaC}
  SupplyAirTemperature,                   !- Zone Heating Design Supply Air Temperature Input Method
  40,                                     !- Zone Heating Design Supply Air Temperature {C}
  11.11,                                  !- Zone Heating Design Supply Air Temperature Difference {deltaC}
  0.0085,                                 !- Zone Cooling Design Supply Air Humidity Ratio {kg-H2O/kg-air}
  0.008,                                  !- Zone Heating Design Supply Air Humidity Ratio {kg-H2O/kg-air}
  ,                                       !- Zone Heating Sizing Factor
  ,                                       !- Zone Cooling Sizing Factor
  DesignDay,                              !- Cooling Design Air Flow Method
  ,                                       !- Cooling Design Air Flow Rate {m3/s}
  ,                                       !- Cooling Minimum Air Flow per Zone Floor Area {m3/s-m2}
  ,                                       !- Cooling Minimum Air Flow {m3/s}
  ,                                       !- Cooling Minimum Air Flow Fraction
  DesignDay,                              !- Heating Design Air Flow Method
  ,                                       !- Heating Design Air Flow Rate {m3/s}
  ,                                       !- Heating Maximum Air Flow per Zone Floor Area {m3/s-m2}
  ,                                       !- Heating Maximum Air Flow {m3/s}
  ,                                       !- Heating Maximum Air Flow Fraction
  ,                                       !- Design Zone Air Distribution Effectiveness in Cooling Mode
  ,                                       !- Design Zone Air Distribution Effectiveness in Heating Mode
  No,                                     !- Account for Dedicated Outdoor Air System
  NeutralSupplyAir,                       !- Dedicated Outdoor Air System Control Strategy
  autosize,                               !- Dedicated Outdoor Air Low Setpoint Temperature for Design {C}
  autosize;                               !- Dedicated Outdoor Air High Setpoint Temperature for Design {C}

OS:ZoneHVAC:EquipmentList,
  {b5b05c53-e645-4909-8021-e19e9589d122}, !- Handle
  Zone HVAC Equipment List 1,             !- Name
  {fa6bc99f-f5a9-4047-a37f-2762dcfea11b}; !- Thermal Zone

OS:Space,
  {7fb49b96-52b9-47a7-8b06-8b379221a9df}, !- Handle
  living space,                           !- Name
  {21028606-097c-49e5-933c-6483b59547d1}, !- Space Type Name
  ,                                       !- Default Construction Set Name
  ,                                       !- Default Schedule Set Name
  ,                                       !- Direction of Relative North {deg}
  ,                                       !- X Origin {m}
  ,                                       !- Y Origin {m}
  ,                                       !- Z Origin {m}
  ,                                       !- Building Story Name
  {fa6bc99f-f5a9-4047-a37f-2762dcfea11b}, !- Thermal Zone Name
  ,                                       !- Part of Total Floor Area
  ,                                       !- Design Specification Outdoor Air Object Name
  {5f0886d2-730e-4c52-b975-5b283e6b4ed8}; !- Building Unit Name

OS:Surface,
  {567b293e-1058-4b32-a010-c255b71ce58e}, !- Handle
  Surface 1,                              !- Name
  Floor,                                  !- Surface Type
  ,                                       !- Construction Name
  {7fb49b96-52b9-47a7-8b06-8b379221a9df}, !- Space Name
  Foundation,                             !- Outside Boundary Condition
  ,                                       !- Outside Boundary Condition Object
  NoSun,                                  !- Sun Exposure
  NoWind,                                 !- Wind Exposure
  ,                                       !- View Factor to Ground
  ,                                       !- Number of Vertices
  0, -12.9315688143396, 0,                !- X,Y,Z Vertex 1 {m}
  0, 0, 0,                                !- X,Y,Z Vertex 2 {m}
  6.46578440716979, 0, 0,                 !- X,Y,Z Vertex 3 {m}
  6.46578440716979, -12.9315688143396, 0; !- X,Y,Z Vertex 4 {m}

OS:Surface,
  {d95510a6-e836-40ad-961d-c86420ceb38d}, !- Handle
  Surface 2,                              !- Name
  Wall,                                   !- Surface Type
  ,                                       !- Construction Name
  {7fb49b96-52b9-47a7-8b06-8b379221a9df}, !- Space Name
  Outdoors,                               !- Outside Boundary Condition
  ,                                       !- Outside Boundary Condition Object
  SunExposed,                             !- Sun Exposure
  WindExposed,                            !- Wind Exposure
  ,                                       !- View Factor to Ground
  ,                                       !- Number of Vertices
  0, 0, 2.4384,                           !- X,Y,Z Vertex 1 {m}
  0, 0, 0,                                !- X,Y,Z Vertex 2 {m}
  0, -12.9315688143396, 0,                !- X,Y,Z Vertex 3 {m}
  0, -12.9315688143396, 2.4384;           !- X,Y,Z Vertex 4 {m}

OS:Surface,
  {540e48d9-413d-4732-a34f-d00ba12560b6}, !- Handle
  Surface 3,                              !- Name
  Wall,                                   !- Surface Type
  ,                                       !- Construction Name
  {7fb49b96-52b9-47a7-8b06-8b379221a9df}, !- Space Name
  Outdoors,                               !- Outside Boundary Condition
  ,                                       !- Outside Boundary Condition Object
  SunExposed,                             !- Sun Exposure
  WindExposed,                            !- Wind Exposure
  ,                                       !- View Factor to Ground
  ,                                       !- Number of Vertices
  6.46578440716979, 0, 2.4384,            !- X,Y,Z Vertex 1 {m}
  6.46578440716979, 0, 0,                 !- X,Y,Z Vertex 2 {m}
  0, 0, 0,                                !- X,Y,Z Vertex 3 {m}
  0, 0, 2.4384;                           !- X,Y,Z Vertex 4 {m}

OS:Surface,
  {cffabaf6-9672-4581-962c-831f67add4f5}, !- Handle
  Surface 4,                              !- Name
  Wall,                                   !- Surface Type
  ,                                       !- Construction Name
  {7fb49b96-52b9-47a7-8b06-8b379221a9df}, !- Space Name
  Surface,                                !- Outside Boundary Condition
  {fb957ade-aa2f-4619-89cc-3ec6b6577f4f}, !- Outside Boundary Condition Object
  NoSun,                                  !- Sun Exposure
  NoWind,                                 !- Wind Exposure
  ,                                       !- View Factor to Ground
  ,                                       !- Number of Vertices
  6.46578440716979, -12.9315688143396, 2.4384, !- X,Y,Z Vertex 1 {m}
  6.46578440716979, -12.9315688143396, 0, !- X,Y,Z Vertex 2 {m}
  6.46578440716979, 0, 0,                 !- X,Y,Z Vertex 3 {m}
  6.46578440716979, 0, 2.4384;            !- X,Y,Z Vertex 4 {m}

OS:Surface,
  {6745b3ed-97f1-47d7-8a36-2e6447142af3}, !- Handle
  Surface 5,                              !- Name
  Wall,                                   !- Surface Type
  ,                                       !- Construction Name
  {7fb49b96-52b9-47a7-8b06-8b379221a9df}, !- Space Name
  Outdoors,                               !- Outside Boundary Condition
  ,                                       !- Outside Boundary Condition Object
  SunExposed,                             !- Sun Exposure
  WindExposed,                            !- Wind Exposure
  ,                                       !- View Factor to Ground
  ,                                       !- Number of Vertices
  0, -12.9315688143396, 2.4384,           !- X,Y,Z Vertex 1 {m}
  0, -12.9315688143396, 0,                !- X,Y,Z Vertex 2 {m}
  6.46578440716979, -12.9315688143396, 0, !- X,Y,Z Vertex 3 {m}
  6.46578440716979, -12.9315688143396, 2.4384; !- X,Y,Z Vertex 4 {m}

OS:Surface,
  {31657fd2-6391-4357-860e-04a6b8550659}, !- Handle
  Surface 6,                              !- Name
  RoofCeiling,                            !- Surface Type
  ,                                       !- Construction Name
  {7fb49b96-52b9-47a7-8b06-8b379221a9df}, !- Space Name
  Surface,                                !- Outside Boundary Condition
  {df6703ed-b82f-4c1b-bda4-1172bb89c52a}, !- Outside Boundary Condition Object
  NoSun,                                  !- Sun Exposure
  NoWind,                                 !- Wind Exposure
  ,                                       !- View Factor to Ground
  ,                                       !- Number of Vertices
  6.46578440716979, -12.9315688143396, 2.4384, !- X,Y,Z Vertex 1 {m}
  6.46578440716979, 0, 2.4384,            !- X,Y,Z Vertex 2 {m}
  0, 0, 2.4384,                           !- X,Y,Z Vertex 3 {m}
  0, -12.9315688143396, 2.4384;           !- X,Y,Z Vertex 4 {m}

OS:SpaceType,
  {21028606-097c-49e5-933c-6483b59547d1}, !- Handle
  Space Type 1,                           !- Name
  ,                                       !- Default Construction Set Name
  ,                                       !- Default Schedule Set Name
  ,                                       !- Group Rendering Name
  ,                                       !- Design Specification Outdoor Air Object Name
  ,                                       !- Standards Template
  ,                                       !- Standards Building Type
  living;                                 !- Standards Space Type

OS:ThermalZone,
  {28fabe7c-0a08-48b2-988b-409b8d6b8e08}, !- Handle
  living zone|unit 2,                     !- Name
  ,                                       !- Multiplier
  ,                                       !- Ceiling Height {m}
  ,                                       !- Volume {m3}
  ,                                       !- Floor Area {m2}
  ,                                       !- Zone Inside Convection Algorithm
  ,                                       !- Zone Outside Convection Algorithm
  ,                                       !- Zone Conditioning Equipment List Name
  {25b4bd00-d609-47ca-bf27-46fb168a3e37}, !- Zone Air Inlet Port List
  {9535bd82-0ab1-4c95-950b-16d81fe96992}, !- Zone Air Exhaust Port List
  {01a689e5-a930-40f1-93ce-2f16088531d7}, !- Zone Air Node Name
  {e18a4045-4613-43b7-b137-97773db26a68}, !- Zone Return Air Port List
  ,                                       !- Primary Daylighting Control Name
  ,                                       !- Fraction of Zone Controlled by Primary Daylighting Control
  ,                                       !- Secondary Daylighting Control Name
  ,                                       !- Fraction of Zone Controlled by Secondary Daylighting Control
  ,                                       !- Illuminance Map Name
  ,                                       !- Group Rendering Name
  ,                                       !- Thermostat Name
  No;                                     !- Use Ideal Air Loads

OS:Node,
  {af8ac97e-afec-4b1c-a376-84806f1af29e}, !- Handle
  Node 2,                                 !- Name
  {01a689e5-a930-40f1-93ce-2f16088531d7}, !- Inlet Port
  ;                                       !- Outlet Port

OS:Connection,
  {01a689e5-a930-40f1-93ce-2f16088531d7}, !- Handle
  {04b5592c-2a98-4352-86c8-13d1b3799dd3}, !- Name
  {28fabe7c-0a08-48b2-988b-409b8d6b8e08}, !- Source Object
  11,                                     !- Outlet Port
  {af8ac97e-afec-4b1c-a376-84806f1af29e}, !- Target Object
  2;                                      !- Inlet Port

OS:PortList,
  {25b4bd00-d609-47ca-bf27-46fb168a3e37}, !- Handle
  {a789c10d-d826-47dc-9168-df66c20c17c9}, !- Name
  {28fabe7c-0a08-48b2-988b-409b8d6b8e08}; !- HVAC Component

OS:PortList,
  {9535bd82-0ab1-4c95-950b-16d81fe96992}, !- Handle
  {48781033-2b5e-466d-83f1-dadfa83b390c}, !- Name
  {28fabe7c-0a08-48b2-988b-409b8d6b8e08}; !- HVAC Component

OS:PortList,
  {e18a4045-4613-43b7-b137-97773db26a68}, !- Handle
  {20293061-f5e0-4e1c-8db3-9931019ea365}, !- Name
  {28fabe7c-0a08-48b2-988b-409b8d6b8e08}; !- HVAC Component

OS:Sizing:Zone,
  {ebb27ff6-8f90-4914-b92f-c08bfdd8bc62}, !- Handle
  {28fabe7c-0a08-48b2-988b-409b8d6b8e08}, !- Zone or ZoneList Name
  SupplyAirTemperature,                   !- Zone Cooling Design Supply Air Temperature Input Method
  14,                                     !- Zone Cooling Design Supply Air Temperature {C}
  11.11,                                  !- Zone Cooling Design Supply Air Temperature Difference {deltaC}
  SupplyAirTemperature,                   !- Zone Heating Design Supply Air Temperature Input Method
  40,                                     !- Zone Heating Design Supply Air Temperature {C}
  11.11,                                  !- Zone Heating Design Supply Air Temperature Difference {deltaC}
  0.0085,                                 !- Zone Cooling Design Supply Air Humidity Ratio {kg-H2O/kg-air}
  0.008,                                  !- Zone Heating Design Supply Air Humidity Ratio {kg-H2O/kg-air}
  ,                                       !- Zone Heating Sizing Factor
  ,                                       !- Zone Cooling Sizing Factor
  DesignDay,                              !- Cooling Design Air Flow Method
  ,                                       !- Cooling Design Air Flow Rate {m3/s}
  ,                                       !- Cooling Minimum Air Flow per Zone Floor Area {m3/s-m2}
  ,                                       !- Cooling Minimum Air Flow {m3/s}
  ,                                       !- Cooling Minimum Air Flow Fraction
  DesignDay,                              !- Heating Design Air Flow Method
  ,                                       !- Heating Design Air Flow Rate {m3/s}
  ,                                       !- Heating Maximum Air Flow per Zone Floor Area {m3/s-m2}
  ,                                       !- Heating Maximum Air Flow {m3/s}
  ,                                       !- Heating Maximum Air Flow Fraction
  ,                                       !- Design Zone Air Distribution Effectiveness in Cooling Mode
  ,                                       !- Design Zone Air Distribution Effectiveness in Heating Mode
  No,                                     !- Account for Dedicated Outdoor Air System
  NeutralSupplyAir,                       !- Dedicated Outdoor Air System Control Strategy
  autosize,                               !- Dedicated Outdoor Air Low Setpoint Temperature for Design {C}
  autosize;                               !- Dedicated Outdoor Air High Setpoint Temperature for Design {C}

OS:ZoneHVAC:EquipmentList,
  {e68b6f4e-f9b2-4360-bc76-bb8e9f5ac41d}, !- Handle
  Zone HVAC Equipment List 2,             !- Name
  {28fabe7c-0a08-48b2-988b-409b8d6b8e08}; !- Thermal Zone

OS:Space,
  {96777d21-5908-4542-89ef-97c2da9ad137}, !- Handle
  living space|unit 2|story 1,            !- Name
  {21028606-097c-49e5-933c-6483b59547d1}, !- Space Type Name
  ,                                       !- Default Construction Set Name
  ,                                       !- Default Schedule Set Name
  -0,                                     !- Direction of Relative North {deg}
  0,                                      !- X Origin {m}
  0,                                      !- Y Origin {m}
  0,                                      !- Z Origin {m}
  ,                                       !- Building Story Name
  {28fabe7c-0a08-48b2-988b-409b8d6b8e08}, !- Thermal Zone Name
  ,                                       !- Part of Total Floor Area
  ,                                       !- Design Specification Outdoor Air Object Name
  {faa7d5ce-0f1f-4a71-828e-0982834e5f60}; !- Building Unit Name

OS:Surface,
  {9052e47f-cccb-47e6-a45b-4db6fa15cf71}, !- Handle
  Surface 12,                             !- Name
  Floor,                                  !- Surface Type
  ,                                       !- Construction Name
  {96777d21-5908-4542-89ef-97c2da9ad137}, !- Space Name
  Foundation,                             !- Outside Boundary Condition
  ,                                       !- Outside Boundary Condition Object
  NoSun,                                  !- Sun Exposure
  NoWind,                                 !- Wind Exposure
  ,                                       !- View Factor to Ground
  ,                                       !- Number of Vertices
  6.46578440716979, -12.9315688143396, 0, !- X,Y,Z Vertex 1 {m}
  6.46578440716979, 0, 0,                 !- X,Y,Z Vertex 2 {m}
  12.9315688143396, 0, 0,                 !- X,Y,Z Vertex 3 {m}
  12.9315688143396, -12.9315688143396, 0; !- X,Y,Z Vertex 4 {m}

OS:Surface,
  {fb957ade-aa2f-4619-89cc-3ec6b6577f4f}, !- Handle
  Surface 13,                             !- Name
  Wall,                                   !- Surface Type
  ,                                       !- Construction Name
  {96777d21-5908-4542-89ef-97c2da9ad137}, !- Space Name
  Surface,                                !- Outside Boundary Condition
  {cffabaf6-9672-4581-962c-831f67add4f5}, !- Outside Boundary Condition Object
  NoSun,                                  !- Sun Exposure
  NoWind,                                 !- Wind Exposure
  ,                                       !- View Factor to Ground
  ,                                       !- Number of Vertices
  6.46578440716979, 0, 2.4384,            !- X,Y,Z Vertex 1 {m}
  6.46578440716979, 0, 0,                 !- X,Y,Z Vertex 2 {m}
  6.46578440716979, -12.9315688143396, 0, !- X,Y,Z Vertex 3 {m}
  6.46578440716979, -12.9315688143396, 2.4384; !- X,Y,Z Vertex 4 {m}

OS:Surface,
  {98f3eb46-4339-43f8-a929-bbdd2ac8f7ba}, !- Handle
  Surface 14,                             !- Name
  Wall,                                   !- Surface Type
  ,                                       !- Construction Name
  {96777d21-5908-4542-89ef-97c2da9ad137}, !- Space Name
  Outdoors,                               !- Outside Boundary Condition
  ,                                       !- Outside Boundary Condition Object
  SunExposed,                             !- Sun Exposure
  WindExposed,                            !- Wind Exposure
  ,                                       !- View Factor to Ground
  ,                                       !- Number of Vertices
  12.9315688143396, 0, 2.4384,            !- X,Y,Z Vertex 1 {m}
  12.9315688143396, 0, 0,                 !- X,Y,Z Vertex 2 {m}
  6.46578440716979, 0, 0,                 !- X,Y,Z Vertex 3 {m}
  6.46578440716979, 0, 2.4384;            !- X,Y,Z Vertex 4 {m}

OS:Surface,
  {8c137622-bcb6-47b7-9b77-e659f54094d6}, !- Handle
  Surface 15,                             !- Name
  Wall,                                   !- Surface Type
  ,                                       !- Construction Name
  {96777d21-5908-4542-89ef-97c2da9ad137}, !- Space Name
  Outdoors,                               !- Outside Boundary Condition
  ,                                       !- Outside Boundary Condition Object
  SunExposed,                             !- Sun Exposure
  WindExposed,                            !- Wind Exposure
  ,                                       !- View Factor to Ground
  ,                                       !- Number of Vertices
  6.46578440716979, -12.9315688143396, 2.4384, !- X,Y,Z Vertex 1 {m}
  6.46578440716979, -12.9315688143396, 0, !- X,Y,Z Vertex 2 {m}
  12.9315688143396, -12.9315688143396, 0, !- X,Y,Z Vertex 3 {m}
  12.9315688143396, -12.9315688143396, 2.4384; !- X,Y,Z Vertex 4 {m}

OS:Surface,
  {37fef186-f3b9-4d69-a48a-9aa64a2b5bf4}, !- Handle
  Surface 16,                             !- Name
  RoofCeiling,                            !- Surface Type
  ,                                       !- Construction Name
  {96777d21-5908-4542-89ef-97c2da9ad137}, !- Space Name
  Surface,                                !- Outside Boundary Condition
  {749d8e30-9a97-43c0-8cbb-f2dffca0c67a}, !- Outside Boundary Condition Object
  NoSun,                                  !- Sun Exposure
  NoWind,                                 !- Wind Exposure
  ,                                       !- View Factor to Ground
  ,                                       !- Number of Vertices
  12.9315688143396, -12.9315688143396, 2.4384, !- X,Y,Z Vertex 1 {m}
  12.9315688143396, 0, 2.4384,            !- X,Y,Z Vertex 2 {m}
  6.46578440716979, 0, 2.4384,            !- X,Y,Z Vertex 3 {m}
  6.46578440716979, -12.9315688143396, 2.4384; !- X,Y,Z Vertex 4 {m}

OS:Surface,
  {e34c1cf5-d67e-4df3-92cb-d1b11700d553}, !- Handle
  Surface 17,                             !- Name
  Wall,                                   !- Surface Type
  ,                                       !- Construction Name
  {96777d21-5908-4542-89ef-97c2da9ad137}, !- Space Name
  Surface,                                !- Outside Boundary Condition
  {b0f07ec0-55da-45be-982d-7f341f47a50f}, !- Outside Boundary Condition Object
  NoSun,                                  !- Sun Exposure
  NoWind,                                 !- Wind Exposure
  ,                                       !- View Factor to Ground
  ,                                       !- Number of Vertices
  12.9315688143396, -12.9315688143396, 2.4384, !- X,Y,Z Vertex 1 {m}
  12.9315688143396, -12.9315688143396, 0, !- X,Y,Z Vertex 2 {m}
  12.9315688143396, 0, 0,                 !- X,Y,Z Vertex 3 {m}
  12.9315688143396, 0, 2.4384;            !- X,Y,Z Vertex 4 {m}

OS:ThermalZone,
  {6a7b9410-d1eb-4453-91bd-9bb965a90d3e}, !- Handle
  living zone|unit 3,                     !- Name
  ,                                       !- Multiplier
  ,                                       !- Ceiling Height {m}
  ,                                       !- Volume {m3}
  ,                                       !- Floor Area {m2}
  ,                                       !- Zone Inside Convection Algorithm
  ,                                       !- Zone Outside Convection Algorithm
  ,                                       !- Zone Conditioning Equipment List Name
  {d88fe982-f03f-4854-8ff0-83e926657397}, !- Zone Air Inlet Port List
  {c2283b27-d62c-4479-b0b1-1e2bdd105d6b}, !- Zone Air Exhaust Port List
  {a3083c9b-5373-41ea-8394-ae97eb50272f}, !- Zone Air Node Name
  {1e4e4d32-3a5e-48cd-9ccf-c249dacd1834}, !- Zone Return Air Port List
  ,                                       !- Primary Daylighting Control Name
  ,                                       !- Fraction of Zone Controlled by Primary Daylighting Control
  ,                                       !- Secondary Daylighting Control Name
  ,                                       !- Fraction of Zone Controlled by Secondary Daylighting Control
  ,                                       !- Illuminance Map Name
  ,                                       !- Group Rendering Name
  ,                                       !- Thermostat Name
  No;                                     !- Use Ideal Air Loads

OS:Node,
  {10a6e2c2-6b22-481d-9113-0ab6933ae5a4}, !- Handle
  Node 3,                                 !- Name
  {a3083c9b-5373-41ea-8394-ae97eb50272f}, !- Inlet Port
  ;                                       !- Outlet Port

OS:Connection,
  {a3083c9b-5373-41ea-8394-ae97eb50272f}, !- Handle
  {08f4578b-f5d9-4a6a-8c82-cf38cfeaeff4}, !- Name
  {6a7b9410-d1eb-4453-91bd-9bb965a90d3e}, !- Source Object
  11,                                     !- Outlet Port
  {10a6e2c2-6b22-481d-9113-0ab6933ae5a4}, !- Target Object
  2;                                      !- Inlet Port

OS:PortList,
  {d88fe982-f03f-4854-8ff0-83e926657397}, !- Handle
  {d99cdddf-88c3-4f25-a0fa-21bf28d14734}, !- Name
  {6a7b9410-d1eb-4453-91bd-9bb965a90d3e}; !- HVAC Component

OS:PortList,
  {c2283b27-d62c-4479-b0b1-1e2bdd105d6b}, !- Handle
  {166a17aa-51fb-43a4-b9ad-6d0a1004bc56}, !- Name
  {6a7b9410-d1eb-4453-91bd-9bb965a90d3e}; !- HVAC Component

OS:PortList,
  {1e4e4d32-3a5e-48cd-9ccf-c249dacd1834}, !- Handle
  {079b3c46-5279-454d-8cd3-b4eaddaa6a0b}, !- Name
  {6a7b9410-d1eb-4453-91bd-9bb965a90d3e}; !- HVAC Component

OS:Sizing:Zone,
  {d1ec4f0c-7df6-488f-b965-5ed69b128604}, !- Handle
  {6a7b9410-d1eb-4453-91bd-9bb965a90d3e}, !- Zone or ZoneList Name
  SupplyAirTemperature,                   !- Zone Cooling Design Supply Air Temperature Input Method
  14,                                     !- Zone Cooling Design Supply Air Temperature {C}
  11.11,                                  !- Zone Cooling Design Supply Air Temperature Difference {deltaC}