!- NOTE: Auto-generated from /test/osw_files/SFA_10units_2story_FB_UA_3Beds_2Baths_Denver.osw

OS:Version,
  {c04adb2c-f565-47e7-acab-8a3305cc3c1c}, !- Handle
  2.8.1;                                  !- Version Identifier

OS:SimulationControl,
  {e63db3da-45f1-443b-b42b-16c35c938a27}, !- Handle
  ,                                       !- Do Zone Sizing Calculation
  ,                                       !- Do System Sizing Calculation
  ,                                       !- Do Plant Sizing Calculation
  No;                                     !- Run Simulation for Sizing Periods

OS:Timestep,
  {8858b098-e5b7-4166-9d5c-1340574d3e04}, !- Handle
  6;                                      !- Number of Timesteps per Hour

OS:ShadowCalculation,
  {2325d738-3236-49a5-8a5b-02cad3fa4612}, !- Handle
  20,                                     !- Calculation Frequency
  200;                                    !- Maximum Figures in Shadow Overlap Calculations

OS:SurfaceConvectionAlgorithm:Outside,
  {b48421b8-7200-4ec8-8b37-01f2904f2d91}, !- Handle
  DOE-2;                                  !- Algorithm

OS:SurfaceConvectionAlgorithm:Inside,
  {fac4e6e1-6fe9-4352-be40-f2c5bdeb8346}, !- Handle
  TARP;                                   !- Algorithm

OS:ZoneCapacitanceMultiplier:ResearchSpecial,
  {731d9fc7-a7c6-48d5-8645-900cfe04a3fa}, !- Handle
  ,                                       !- Temperature Capacity Multiplier
  15,                                     !- Humidity Capacity Multiplier
  ;                                       !- Carbon Dioxide Capacity Multiplier

OS:RunPeriod,
  {6e9dc74a-bf1b-4539-96b4-0c92d7ffb850}, !- Handle
  Run Period 1,                           !- Name
  1,                                      !- Begin Month
  1,                                      !- Begin Day of Month
  12,                                     !- End Month
  31,                                     !- End Day of Month
  ,                                       !- Use Weather File Holidays and Special Days
  ,                                       !- Use Weather File Daylight Saving Period
  ,                                       !- Apply Weekend Holiday Rule
  ,                                       !- Use Weather File Rain Indicators
  ,                                       !- Use Weather File Snow Indicators
  ;                                       !- Number of Times Runperiod to be Repeated

OS:YearDescription,
  {98535983-8e13-417e-9df5-0c7da700afe5}, !- Handle
  2007,                                   !- Calendar Year
  ,                                       !- Day of Week for Start Day
  ;                                       !- Is Leap Year

OS:ThermalZone,
  {54ed9065-e348-4652-a26c-332566994335}, !- Handle
  living zone,                            !- Name
  ,                                       !- Multiplier
  ,                                       !- Ceiling Height {m}
  ,                                       !- Volume {m3}
  ,                                       !- Floor Area {m2}
  ,                                       !- Zone Inside Convection Algorithm
  ,                                       !- Zone Outside Convection Algorithm
  ,                                       !- Zone Conditioning Equipment List Name
  {232d877d-685a-4d9c-8e03-f4eadc234525}, !- Zone Air Inlet Port List
  {5357bd36-f50d-496e-9eac-681f9ae2a5a4}, !- Zone Air Exhaust Port List
  {955a57aa-bc34-4385-a0b4-770328bebb93}, !- Zone Air Node Name
  {67a78f7d-d26b-434c-9777-9a719fab9541}, !- Zone Return Air Port List
  ,                                       !- Primary Daylighting Control Name
  ,                                       !- Fraction of Zone Controlled by Primary Daylighting Control
  ,                                       !- Secondary Daylighting Control Name
  ,                                       !- Fraction of Zone Controlled by Secondary Daylighting Control
  ,                                       !- Illuminance Map Name
  ,                                       !- Group Rendering Name
  ,                                       !- Thermostat Name
  No;                                     !- Use Ideal Air Loads

OS:Node,
  {e36714ca-fe93-4e82-9c00-d5c08ee2ab76}, !- Handle
  Node 1,                                 !- Name
  {955a57aa-bc34-4385-a0b4-770328bebb93}, !- Inlet Port
  ;                                       !- Outlet Port

OS:Connection,
  {955a57aa-bc34-4385-a0b4-770328bebb93}, !- Handle
  {02606d4d-dc09-4f15-a823-53aa8948bd68}, !- Name
  {54ed9065-e348-4652-a26c-332566994335}, !- Source Object
  11,                                     !- Outlet Port
  {e36714ca-fe93-4e82-9c00-d5c08ee2ab76}, !- Target Object
  2;                                      !- Inlet Port

OS:PortList,
  {232d877d-685a-4d9c-8e03-f4eadc234525}, !- Handle
  {6fa71b4a-c8c1-42a0-a3d1-2f2a2313a0d2}, !- Name
  {54ed9065-e348-4652-a26c-332566994335}; !- HVAC Component

OS:PortList,
  {5357bd36-f50d-496e-9eac-681f9ae2a5a4}, !- Handle
  {6605fae9-f9b8-46af-89a4-77857247a04f}, !- Name
  {54ed9065-e348-4652-a26c-332566994335}; !- HVAC Component

OS:PortList,
  {67a78f7d-d26b-434c-9777-9a719fab9541}, !- Handle
  {95b19471-58d3-43bc-b8c9-be3a39346c76}, !- Name
  {54ed9065-e348-4652-a26c-332566994335}; !- HVAC Component

OS:Sizing:Zone,
  {e5cd929d-c4c7-47c7-b073-7611d2002c7d}, !- Handle
  {54ed9065-e348-4652-a26c-332566994335}, !- Zone or ZoneList Name
  SupplyAirTemperature,                   !- Zone Cooling Design Supply Air Temperature Input Method
  14,                                     !- Zone Cooling Design Supply Air Temperature {C}
  11.11,                                  !- Zone Cooling Design Supply Air Temperature Difference {deltaC}
  SupplyAirTemperature,                   !- Zone Heating Design Supply Air Temperature Input Method
  40,                                     !- Zone Heating Design Supply Air Temperature {C}
  11.11,                                  !- Zone Heating Design Supply Air Temperature Difference {deltaC}
  0.0085,                                 !- Zone Cooling Design Supply Air Humidity Ratio {kg-H2O/kg-air}
  0.008,                                  !- Zone Heating Design Supply Air Humidity Ratio {kg-H2O/kg-air}
  ,                                       !- Zone Heating Sizing Factor
  ,                                       !- Zone Cooling Sizing Factor
  DesignDay,                              !- Cooling Design Air Flow Method
  ,                                       !- Cooling Design Air Flow Rate {m3/s}
  ,                                       !- Cooling Minimum Air Flow per Zone Floor Area {m3/s-m2}
  ,                                       !- Cooling Minimum Air Flow {m3/s}
  ,                                       !- Cooling Minimum Air Flow Fraction
  DesignDay,                              !- Heating Design Air Flow Method
  ,                                       !- Heating Design Air Flow Rate {m3/s}
  ,                                       !- Heating Maximum Air Flow per Zone Floor Area {m3/s-m2}
  ,                                       !- Heating Maximum Air Flow {m3/s}
  ,                                       !- Heating Maximum Air Flow Fraction
  ,                                       !- Design Zone Air Distribution Effectiveness in Cooling Mode
  ,                                       !- Design Zone Air Distribution Effectiveness in Heating Mode
  No,                                     !- Account for Dedicated Outdoor Air System
  NeutralSupplyAir,                       !- Dedicated Outdoor Air System Control Strategy
  autosize,                               !- Dedicated Outdoor Air Low Setpoint Temperature for Design {C}
  autosize;                               !- Dedicated Outdoor Air High Setpoint Temperature for Design {C}

OS:ZoneHVAC:EquipmentList,
  {9d897f74-fd31-4561-92b2-a50b12546e20}, !- Handle
  Zone HVAC Equipment List 1,             !- Name
  {54ed9065-e348-4652-a26c-332566994335}; !- Thermal Zone

OS:Space,
  {76dae021-0d2e-4d98-92fb-c946a08dbe0e}, !- Handle
  living space,                           !- Name
  {f29b4bb0-b1c4-4219-a33c-a2b31928dc47}, !- Space Type Name
  ,                                       !- Default Construction Set Name
  ,                                       !- Default Schedule Set Name
  ,                                       !- Direction of Relative North {deg}
  ,                                       !- X Origin {m}
  ,                                       !- Y Origin {m}
  ,                                       !- Z Origin {m}
  ,                                       !- Building Story Name
  {54ed9065-e348-4652-a26c-332566994335}, !- Thermal Zone Name
  ,                                       !- Part of Total Floor Area
  ,                                       !- Design Specification Outdoor Air Object Name
  {c70d4e65-1863-4b7c-b851-4dbaa99bea69}; !- Building Unit Name

OS:Surface,
  {3417def9-0cd3-4df9-a1ad-dccd60dc86cf}, !- Handle
  Surface 1,                              !- Name
  Floor,                                  !- Surface Type
  ,                                       !- Construction Name
  {76dae021-0d2e-4d98-92fb-c946a08dbe0e}, !- Space Name
  Surface,                                !- Outside Boundary Condition
  {66a6b40e-5269-41b9-8070-06045b8307f2}, !- Outside Boundary Condition Object
  NoSun,                                  !- Sun Exposure
  NoWind,                                 !- Wind Exposure
  ,                                       !- View Factor to Ground
  ,                                       !- Number of Vertices
  0, -7.46604473600313, 0,                !- X,Y,Z Vertex 1 {m}
  0, 0, 0,                                !- X,Y,Z Vertex 2 {m}
  3.73302236800156, 0, 0,                 !- X,Y,Z Vertex 3 {m}
  3.73302236800156, -7.46604473600313, 0; !- X,Y,Z Vertex 4 {m}

OS:Surface,
  {a21cfbff-8ef4-48b9-bd72-a4372b417cfd}, !- Handle
  Surface 2,                              !- Name
  Wall,                                   !- Surface Type
  ,                                       !- Construction Name
  {76dae021-0d2e-4d98-92fb-c946a08dbe0e}, !- Space Name
  Outdoors,                               !- Outside Boundary Condition
  ,                                       !- Outside Boundary Condition Object
  SunExposed,                             !- Sun Exposure
  WindExposed,                            !- Wind Exposure
  ,                                       !- View Factor to Ground
  ,                                       !- Number of Vertices
  0, 0, 2.4384,                           !- X,Y,Z Vertex 1 {m}
  0, 0, 0,                                !- X,Y,Z Vertex 2 {m}
  0, -7.46604473600313, 0,                !- X,Y,Z Vertex 3 {m}
  0, -7.46604473600313, 2.4384;           !- X,Y,Z Vertex 4 {m}

OS:Surface,
  {7463accf-e3ba-41a7-9eb0-81ceab76bf1e}, !- Handle
  Surface 3,                              !- Name
  Wall,                                   !- Surface Type
  ,                                       !- Construction Name
  {76dae021-0d2e-4d98-92fb-c946a08dbe0e}, !- Space Name
  Outdoors,                               !- Outside Boundary Condition
  ,                                       !- Outside Boundary Condition Object
  SunExposed,                             !- Sun Exposure
  WindExposed,                            !- Wind Exposure
  ,                                       !- View Factor to Ground
  ,                                       !- Number of Vertices
  3.73302236800156, 0, 2.4384,            !- X,Y,Z Vertex 1 {m}
  3.73302236800156, 0, 0,                 !- X,Y,Z Vertex 2 {m}
  0, 0, 0,                                !- X,Y,Z Vertex 3 {m}
  0, 0, 2.4384;                           !- X,Y,Z Vertex 4 {m}

OS:Surface,
  {45256b66-3dc9-4076-8055-ee9624babbb3}, !- Handle
  Surface 4,                              !- Name
  Wall,                                   !- Surface Type
  ,                                       !- Construction Name
  {76dae021-0d2e-4d98-92fb-c946a08dbe0e}, !- Space Name
  Surface,                                !- Outside Boundary Condition
  {3c2ab3b7-800a-470a-aafc-794fb7dbf485}, !- Outside Boundary Condition Object
  NoSun,                                  !- Sun Exposure
  NoWind,                                 !- Wind Exposure
  ,                                       !- View Factor to Ground
  ,                                       !- Number of Vertices
  3.73302236800156, -7.46604473600313, 2.4384, !- X,Y,Z Vertex 1 {m}
  3.73302236800156, -7.46604473600313, 0, !- X,Y,Z Vertex 2 {m}
  3.73302236800156, 0, 0,                 !- X,Y,Z Vertex 3 {m}
  3.73302236800156, 0, 2.4384;            !- X,Y,Z Vertex 4 {m}

OS:Surface,
  {573c31c1-b501-4387-ad30-f8aebdea96c6}, !- Handle
  Surface 5,                              !- Name
  Wall,                                   !- Surface Type
  ,                                       !- Construction Name
  {76dae021-0d2e-4d98-92fb-c946a08dbe0e}, !- Space Name
  Outdoors,                               !- Outside Boundary Condition
  ,                                       !- Outside Boundary Condition Object
  SunExposed,                             !- Sun Exposure
  WindExposed,                            !- Wind Exposure
  ,                                       !- View Factor to Ground
  ,                                       !- Number of Vertices
  0, -7.46604473600313, 2.4384,           !- X,Y,Z Vertex 1 {m}
  0, -7.46604473600313, 0,                !- X,Y,Z Vertex 2 {m}
  3.73302236800156, -7.46604473600313, 0, !- X,Y,Z Vertex 3 {m}
  3.73302236800156, -7.46604473600313, 2.4384; !- X,Y,Z Vertex 4 {m}

OS:Surface,
  {fcef76c7-ab74-4da2-ad9a-e0b390902453}, !- Handle
  Surface 6,                              !- Name
  RoofCeiling,                            !- Surface Type
  ,                                       !- Construction Name
  {76dae021-0d2e-4d98-92fb-c946a08dbe0e}, !- Space Name
  Surface,                                !- Outside Boundary Condition
  {f8a80590-9dbb-4812-a103-66f71a3be9f9}, !- Outside Boundary Condition Object
  NoSun,                                  !- Sun Exposure
  NoWind,                                 !- Wind Exposure
  ,                                       !- View Factor to Ground
  ,                                       !- Number of Vertices
  3.73302236800156, -7.46604473600313, 2.4384, !- X,Y,Z Vertex 1 {m}
  3.73302236800156, 0, 2.4384,            !- X,Y,Z Vertex 2 {m}
  0, 0, 2.4384,                           !- X,Y,Z Vertex 3 {m}
  0, -7.46604473600313, 2.4384;           !- X,Y,Z Vertex 4 {m}

OS:SpaceType,
  {f29b4bb0-b1c4-4219-a33c-a2b31928dc47}, !- Handle
  Space Type 1,                           !- Name
  ,                                       !- Default Construction Set Name
  ,                                       !- Default Schedule Set Name
  ,                                       !- Group Rendering Name
  ,                                       !- Design Specification Outdoor Air Object Name
  ,                                       !- Standards Template
  ,                                       !- Standards Building Type
  living;                                 !- Standards Space Type

OS:Space,
  {63e7b0cc-9812-413b-9da9-ae13b123e542}, !- Handle
  living space|story 2,                   !- Name
  {f29b4bb0-b1c4-4219-a33c-a2b31928dc47}, !- Space Type Name
  ,                                       !- Default Construction Set Name
  ,                                       !- Default Schedule Set Name
  -0,                                     !- Direction of Relative North {deg}
  0,                                      !- X Origin {m}
  0,                                      !- Y Origin {m}
  2.4384,                                 !- Z Origin {m}
  ,                                       !- Building Story Name
  {54ed9065-e348-4652-a26c-332566994335}, !- Thermal Zone Name
  ,                                       !- Part of Total Floor Area
  ,                                       !- Design Specification Outdoor Air Object Name
  {c70d4e65-1863-4b7c-b851-4dbaa99bea69}; !- Building Unit Name

OS:Surface,
  {1de3966c-07c5-4929-97e9-616c1a688bd7}, !- Handle
  Surface 7,                              !- Name
  Wall,                                   !- Surface Type
  ,                                       !- Construction Name
  {63e7b0cc-9812-413b-9da9-ae13b123e542}, !- Space Name
  Surface,                                !- Outside Boundary Condition
  {8572ee87-d44b-4b82-9c8a-e65b02c3c60a}, !- Outside Boundary Condition Object
  NoSun,                                  !- Sun Exposure
  NoWind,                                 !- Wind Exposure
  ,                                       !- View Factor to Ground
  ,                                       !- Number of Vertices
  3.73302236800156, -7.46604473600313, 2.4384, !- X,Y,Z Vertex 1 {m}
  3.73302236800156, -7.46604473600313, 0, !- X,Y,Z Vertex 2 {m}
  3.73302236800156, 0, 0,                 !- X,Y,Z Vertex 3 {m}
  3.73302236800156, 0, 2.4384;            !- X,Y,Z Vertex 4 {m}

OS:Surface,
  {f8a80590-9dbb-4812-a103-66f71a3be9f9}, !- Handle
  Surface 8,                              !- Name
  Floor,                                  !- Surface Type
  ,                                       !- Construction Name
  {63e7b0cc-9812-413b-9da9-ae13b123e542}, !- Space Name
  Surface,                                !- Outside Boundary Condition
  {fcef76c7-ab74-4da2-ad9a-e0b390902453}, !- Outside Boundary Condition Object
  NoSun,                                  !- Sun Exposure
  NoWind,                                 !- Wind Exposure
  ,                                       !- View Factor to Ground
  ,                                       !- Number of Vertices
  0, -7.46604473600313, 0,                !- X,Y,Z Vertex 1 {m}
  0, 0, 0,                                !- X,Y,Z Vertex 2 {m}
  3.73302236800156, 0, 0,                 !- X,Y,Z Vertex 3 {m}
  3.73302236800156, -7.46604473600313, 0; !- X,Y,Z Vertex 4 {m}

OS:Surface,
  {2c8d6d67-c14b-4081-9b08-03ddbd732e00}, !- Handle
  Surface 9,                              !- Name
  Wall,                                   !- Surface Type
  ,                                       !- Construction Name
  {63e7b0cc-9812-413b-9da9-ae13b123e542}, !- Space Name
  Outdoors,                               !- Outside Boundary Condition
  ,                                       !- Outside Boundary Condition Object
  SunExposed,                             !- Sun Exposure
  WindExposed,                            !- Wind Exposure
  ,                                       !- View Factor to Ground
  ,                                       !- Number of Vertices
  3.73302236800156, 0, 2.4384,            !- X,Y,Z Vertex 1 {m}
  3.73302236800156, 0, 0,                 !- X,Y,Z Vertex 2 {m}
  0, 0, 0,                                !- X,Y,Z Vertex 3 {m}
  0, 0, 2.4384;                           !- X,Y,Z Vertex 4 {m}

OS:Surface,
  {c0f8eb37-98dd-4493-805c-18a6a21bf62b}, !- Handle
  Surface 10,                             !- Name
  Wall,                                   !- Surface Type
  ,                                       !- Construction Name
  {63e7b0cc-9812-413b-9da9-ae13b123e542}, !- Space Name
  Outdoors,                               !- Outside Boundary Condition
  ,                                       !- Outside Boundary Condition Object
  SunExposed,                             !- Sun Exposure
  WindExposed,                            !- Wind Exposure
  ,                                       !- View Factor to Ground
  ,                                       !- Number of Vertices
  0, -7.46604473600313, 2.4384,           !- X,Y,Z Vertex 1 {m}
  0, -7.46604473600313, 0,                !- X,Y,Z Vertex 2 {m}
  3.73302236800156, -7.46604473600313, 0, !- X,Y,Z Vertex 3 {m}
  3.73302236800156, -7.46604473600313, 2.4384; !- X,Y,Z Vertex 4 {m}

OS:Surface,
  {60b60851-d535-4090-80c9-6962dad3ca4d}, !- Handle
  Surface 11,                             !- Name
  RoofCeiling,                            !- Surface Type
  ,                                       !- Construction Name
  {63e7b0cc-9812-413b-9da9-ae13b123e542}, !- Space Name
  Surface,                                !- Outside Boundary Condition
  {89596599-fcb0-4723-a553-b9558ef13e33}, !- Outside Boundary Condition Object
  NoSun,                                  !- Sun Exposure
  NoWind,                                 !- Wind Exposure
  ,                                       !- View Factor to Ground
  ,                                       !- Number of Vertices
  3.73302236800156, -7.46604473600313, 2.4384, !- X,Y,Z Vertex 1 {m}
  3.73302236800156, 0, 2.4384,            !- X,Y,Z Vertex 2 {m}
  0, 0, 2.4384,                           !- X,Y,Z Vertex 3 {m}
  0, -7.46604473600313, 2.4384;           !- X,Y,Z Vertex 4 {m}

OS:Surface,
  {92fe3014-71cf-4812-af84-6ff114522eaa}, !- Handle
  Surface 12,                             !- Name
  Wall,                                   !- Surface Type
  ,                                       !- Construction Name
  {63e7b0cc-9812-413b-9da9-ae13b123e542}, !- Space Name
  Outdoors,                               !- Outside Boundary Condition
  ,                                       !- Outside Boundary Condition Object
  SunExposed,                             !- Sun Exposure
  WindExposed,                            !- Wind Exposure
  ,                                       !- View Factor to Ground
  ,                                       !- Number of Vertices
  0, 0, 2.4384,                           !- X,Y,Z Vertex 1 {m}
  0, 0, 0,                                !- X,Y,Z Vertex 2 {m}
  0, -7.46604473600313, 0,                !- X,Y,Z Vertex 3 {m}
  0, -7.46604473600313, 2.4384;           !- X,Y,Z Vertex 4 {m}

OS:ThermalZone,
  {3efc8e69-417b-4882-bbe5-cb0db2bea2b3}, !- Handle
  living zone|unit 2,                     !- Name
  ,                                       !- Multiplier
  ,                                       !- Ceiling Height {m}
  ,                                       !- Volume {m3}
  ,                                       !- Floor Area {m2}
  ,                                       !- Zone Inside Convection Algorithm
  ,                                       !- Zone Outside Convection Algorithm
  ,                                       !- Zone Conditioning Equipment List Name
  {befbe5a2-b52e-49b2-bbe1-dd38a32e5e23}, !- Zone Air Inlet Port List
  {08ad2f02-0ab1-41da-84bc-23504c22cb2f}, !- Zone Air Exhaust Port List
  {82573e65-e675-4615-b1d3-de6131ed117c}, !- Zone Air Node Name
  {ffabad67-c4e4-4a99-9265-3814c37a0bda}, !- Zone Return Air Port List
  ,                                       !- Primary Daylighting Control Name
  ,                                       !- Fraction of Zone Controlled by Primary Daylighting Control
  ,                                       !- Secondary Daylighting Control Name
  ,                                       !- Fraction of Zone Controlled by Secondary Daylighting Control
  ,                                       !- Illuminance Map Name
  ,                                       !- Group Rendering Name
  ,                                       !- Thermostat Name
  No;                                     !- Use Ideal Air Loads

OS:Node,
  {02d9a51e-9d84-4614-ba65-b8cdfdd42e02}, !- Handle
  Node 2,                                 !- Name
  {82573e65-e675-4615-b1d3-de6131ed117c}, !- Inlet Port
  ;                                       !- Outlet Port

OS:Connection,
  {82573e65-e675-4615-b1d3-de6131ed117c}, !- Handle
  {9cb6c6d2-2fe2-41c1-aafa-9bc47e4b01dc}, !- Name
  {3efc8e69-417b-4882-bbe5-cb0db2bea2b3}, !- Source Object
  11,                                     !- Outlet Port
  {02d9a51e-9d84-4614-ba65-b8cdfdd42e02}, !- Target Object
  2;                                      !- Inlet Port

OS:PortList,
  {befbe5a2-b52e-49b2-bbe1-dd38a32e5e23}, !- Handle
  {990ca5bf-0438-4a2a-bed5-ebf41f9de898}, !- Name
  {3efc8e69-417b-4882-bbe5-cb0db2bea2b3}; !- HVAC Component

OS:PortList,
  {08ad2f02-0ab1-41da-84bc-23504c22cb2f}, !- Handle
  {1a994510-1e15-4ca1-931a-b44a6e34242b}, !- Name
  {3efc8e69-417b-4882-bbe5-cb0db2bea2b3}; !- HVAC Component

OS:PortList,
  {ffabad67-c4e4-4a99-9265-3814c37a0bda}, !- Handle
  {19ee626f-d2cc-43bd-9af3-6fb8ba71cd49}, !- Name
  {3efc8e69-417b-4882-bbe5-cb0db2bea2b3}; !- HVAC Component

OS:Sizing:Zone,
  {34d8287c-f247-459d-991f-fbc307ed60f6}, !- Handle
  {3efc8e69-417b-4882-bbe5-cb0db2bea2b3}, !- Zone or ZoneList Name
  SupplyAirTemperature,                   !- Zone Cooling Design Supply Air Temperature Input Method
  14,                                     !- Zone Cooling Design Supply Air Temperature {C}
  11.11,                                  !- Zone Cooling Design Supply Air Temperature Difference {deltaC}
  SupplyAirTemperature,                   !- Zone Heating Design Supply Air Temperature Input Method
  40,                                     !- Zone Heating Design Supply Air Temperature {C}
  11.11,                                  !- Zone Heating Design Supply Air Temperature Difference {deltaC}
  0.0085,                                 !- Zone Cooling Design Supply Air Humidity Ratio {kg-H2O/kg-air}
  0.008,                                  !- Zone Heating Design Supply Air Humidity Ratio {kg-H2O/kg-air}
  ,                                       !- Zone Heating Sizing Factor
  ,                                       !- Zone Cooling Sizing Factor
  DesignDay,                              !- Cooling Design Air Flow Method
  ,                                       !- Cooling Design Air Flow Rate {m3/s}
  ,                                       !- Cooling Minimum Air Flow per Zone Floor Area {m3/s-m2}
  ,                                       !- Cooling Minimum Air Flow {m3/s}
  ,                                       !- Cooling Minimum Air Flow Fraction
  DesignDay,                              !- Heating Design Air Flow Method
  ,                                       !- Heating Design Air Flow Rate {m3/s}
  ,                                       !- Heating Maximum Air Flow per Zone Floor Area {m3/s-m2}
  ,                                       !- Heating Maximum Air Flow {m3/s}
  ,                                       !- Heating Maximum Air Flow Fraction
  ,                                       !- Design Zone Air Distribution Effectiveness in Cooling Mode
  ,                                       !- Design Zone Air Distribution Effectiveness in Heating Mode
  No,                                     !- Account for Dedicated Outdoor Air System
  NeutralSupplyAir,                       !- Dedicated Outdoor Air System Control Strategy
  autosize,                               !- Dedicated Outdoor Air Low Setpoint Temperature for Design {C}
  autosize;                               !- Dedicated Outdoor Air High Setpoint Temperature for Design {C}

OS:ZoneHVAC:EquipmentList,
  {1405676c-4361-4949-a15d-fed259b37b52}, !- Handle
  Zone HVAC Equipment List 2,             !- Name
  {3efc8e69-417b-4882-bbe5-cb0db2bea2b3}; !- Thermal Zone

OS:Space,
  {57cc3154-ea9f-4f43-a2a4-56e58c85a2e8}, !- Handle
  living space|unit 2|story 1,            !- Name
  {f29b4bb0-b1c4-4219-a33c-a2b31928dc47}, !- Space Type Name
  ,                                       !- Default Construction Set Name
  ,                                       !- Default Schedule Set Name
  -0,                                     !- Direction of Relative North {deg}
  0,                                      !- X Origin {m}
  0,                                      !- Y Origin {m}
  0,                                      !- Z Origin {m}
  ,                                       !- Building Story Name
  {3efc8e69-417b-4882-bbe5-cb0db2bea2b3}, !- Thermal Zone Name
  ,                                       !- Part of Total Floor Area
  ,                                       !- Design Specification Outdoor Air Object Name
  {bff1c8fb-54a6-4c89-b002-a869dd849137}; !- Building Unit Name

OS:Surface,
  {eeab3a1c-b63b-45c7-9a18-b76b7f3fc7ec}, !- Handle
  Surface 18,                             !- Name
  Wall,                                   !- Surface Type
  ,                                       !- Construction Name
  {57cc3154-ea9f-4f43-a2a4-56e58c85a2e8}, !- Space Name
  Surface,                                !- Outside Boundary Condition
  {fdfac23b-bc63-4018-a80b-ba8f9af17f4c}, !- Outside Boundary Condition Object
  NoSun,                                  !- Sun Exposure
  NoWind,                                 !- Wind Exposure
  ,                                       !- View Factor to Ground
  ,                                       !- Number of Vertices
  7.46604473600312, -7.46604473600313, 2.4384, !- X,Y,Z Vertex 1 {m}
  7.46604473600312, -7.46604473600313, 0, !- X,Y,Z Vertex 2 {m}
  7.46604473600312, 0, 0,                 !- X,Y,Z Vertex 3 {m}
  7.46604473600312, 0, 2.4384;            !- X,Y,Z Vertex 4 {m}

OS:Surface,
  {90651d4c-de98-46fd-9ca2-663262a425c4}, !- Handle
  Surface 19,                             !- Name
  Floor,                                  !- Surface Type
  ,                                       !- Construction Name
  {57cc3154-ea9f-4f43-a2a4-56e58c85a2e8}, !- Space Name
  Surface,                                !- Outside Boundary Condition
  {419d6bdb-8ea7-40f8-b83d-27f6f7b36687}, !- Outside Boundary Condition Object
  NoSun,                                  !- Sun Exposure
  NoWind,                                 !- Wind Exposure
  ,                                       !- View Factor to Ground
  ,                                       !- Number of Vertices
  3.73302236800156, -7.46604473600313, 0, !- X,Y,Z Vertex 1 {m}
  3.73302236800156, 0, 0,                 !- X,Y,Z Vertex 2 {m}
  7.46604473600312, 0, 0,                 !- X,Y,Z Vertex 3 {m}