!- NOTE: Auto-generated from /test/osw_files/SFA_4units_1story_SL_UA_3Beds_2Baths_Denver_Boiler.osw

OS:Version,
  {98c8280c-b899-4665-909e-28f34a2b2099}, !- Handle
  2.9.0;                                  !- Version Identifier

OS:SimulationControl,
  {7bc411be-1a52-4871-b746-bb3ea89fa898}, !- Handle
  ,                                       !- Do Zone Sizing Calculation
  ,                                       !- Do System Sizing Calculation
  ,                                       !- Do Plant Sizing Calculation
  No;                                     !- Run Simulation for Sizing Periods

OS:Timestep,
  {6482b25d-d4b4-4255-9280-a8d48f242124}, !- Handle
  6;                                      !- Number of Timesteps per Hour

OS:ShadowCalculation,
  {0dee75ff-1b7a-488f-bad5-f3c4455f0976}, !- Handle
  20,                                     !- Calculation Frequency
  200;                                    !- Maximum Figures in Shadow Overlap Calculations

OS:SurfaceConvectionAlgorithm:Outside,
  {3e6adb46-0078-4df4-9139-ab982b5f4cfe}, !- Handle
  DOE-2;                                  !- Algorithm

OS:SurfaceConvectionAlgorithm:Inside,
  {6595f936-f59c-4ea5-a4ba-803d6ecf9500}, !- Handle
  TARP;                                   !- Algorithm

OS:ZoneCapacitanceMultiplier:ResearchSpecial,
  {760087fe-a028-4c7f-ae3f-e281c9b744c6}, !- Handle
  3.6,                                    !- Temperature Capacity Multiplier
  15,                                     !- Humidity Capacity Multiplier
  ;                                       !- Carbon Dioxide Capacity Multiplier

OS:RunPeriod,
  {d820af11-1690-4ecc-87d2-6b367ae664b7}, !- Handle
  Run Period 1,                           !- Name
  1,                                      !- Begin Month
  1,                                      !- Begin Day of Month
  12,                                     !- End Month
  31,                                     !- End Day of Month
  ,                                       !- Use Weather File Holidays and Special Days
  ,                                       !- Use Weather File Daylight Saving Period
  ,                                       !- Apply Weekend Holiday Rule
  ,                                       !- Use Weather File Rain Indicators
  ,                                       !- Use Weather File Snow Indicators
  ;                                       !- Number of Times Runperiod to be Repeated

OS:YearDescription,
  {ea7a373c-925e-4cf7-b3f5-a5fbd3e4f807}, !- Handle
  2007,                                   !- Calendar Year
  ,                                       !- Day of Week for Start Day
  ;                                       !- Is Leap Year

OS:WeatherFile,
  {d4903ace-a890-4ee3-b52c-5315f1577ac3}, !- Handle
  Denver Intl Ap,                         !- City
  CO,                                     !- State Province Region
  USA,                                    !- Country
  TMY3,                                   !- Data Source
  725650,                                 !- WMO Number
  39.83,                                  !- Latitude {deg}
  -104.65,                                !- Longitude {deg}
  -7,                                     !- Time Zone {hr}
  1650,                                   !- Elevation {m}
  file:../weather/USA_CO_Denver.Intl.AP.725650_TMY3.epw, !- Url
  E23378AA;                               !- Checksum

OS:AdditionalProperties,
  {6c3d924b-2056-43f5-be6a-4053cf26874e}, !- Handle
  {d4903ace-a890-4ee3-b52c-5315f1577ac3}, !- Object Name
  EPWHeaderCity,                          !- Feature Name 1
  String,                                 !- Feature Data Type 1
  Denver Intl Ap,                         !- Feature Value 1
  EPWHeaderState,                         !- Feature Name 2
  String,                                 !- Feature Data Type 2
  CO,                                     !- Feature Value 2
  EPWHeaderCountry,                       !- Feature Name 3
  String,                                 !- Feature Data Type 3
  USA,                                    !- Feature Value 3
  EPWHeaderDataSource,                    !- Feature Name 4
  String,                                 !- Feature Data Type 4
  TMY3,                                   !- Feature Value 4
  EPWHeaderStation,                       !- Feature Name 5
  String,                                 !- Feature Data Type 5
  725650,                                 !- Feature Value 5
  EPWHeaderLatitude,                      !- Feature Name 6
  Double,                                 !- Feature Data Type 6
  39.829999999999998,                     !- Feature Value 6
  EPWHeaderLongitude,                     !- Feature Name 7
  Double,                                 !- Feature Data Type 7
  -104.65000000000001,                    !- Feature Value 7
  EPWHeaderTimezone,                      !- Feature Name 8
  Double,                                 !- Feature Data Type 8
  -7,                                     !- Feature Value 8
  EPWHeaderAltitude,                      !- Feature Name 9
  Double,                                 !- Feature Data Type 9
  5413.3858267716532,                     !- Feature Value 9
  EPWHeaderLocalPressure,                 !- Feature Name 10
  Double,                                 !- Feature Data Type 10
  0.81937567683596546,                    !- Feature Value 10
  EPWHeaderRecordsPerHour,                !- Feature Name 11
  Double,                                 !- Feature Data Type 11
  0,                                      !- Feature Value 11
  EPWDataAnnualAvgDrybulb,                !- Feature Name 12
  Double,                                 !- Feature Data Type 12
  51.575616438356228,                     !- Feature Value 12
  EPWDataAnnualMinDrybulb,                !- Feature Name 13
  Double,                                 !- Feature Data Type 13
  -2.9200000000000017,                    !- Feature Value 13
  EPWDataAnnualMaxDrybulb,                !- Feature Name 14
  Double,                                 !- Feature Data Type 14
  104,                                    !- Feature Value 14
  EPWDataCDD50F,                          !- Feature Name 15
  Double,                                 !- Feature Data Type 15
  3072.2925000000005,                     !- Feature Value 15
  EPWDataCDD65F,                          !- Feature Name 16
  Double,                                 !- Feature Data Type 16
  883.62000000000035,                     !- Feature Value 16
  EPWDataHDD50F,                          !- Feature Name 17
  Double,                                 !- Feature Data Type 17
  2497.1925000000001,                     !- Feature Value 17
  EPWDataHDD65F,                          !- Feature Name 18
  Double,                                 !- Feature Data Type 18
  5783.5200000000013,                     !- Feature Value 18
  EPWDataAnnualAvgWindspeed,              !- Feature Name 19
  Double,                                 !- Feature Data Type 19
  3.9165296803649667,                     !- Feature Value 19
  EPWDataMonthlyAvgDrybulbs,              !- Feature Name 20
  String,                                 !- Feature Data Type 20
  33.4191935483871&#4431.90142857142857&#4443.02620967741937&#4442.48624999999999&#4459.877741935483854&#4473.57574999999997&#4472.07975806451608&#4472.70008064516134&#4466.49200000000006&#4450.079112903225806&#4437.218250000000005&#4434.582177419354835, !- Feature Value 20
  EPWDataGroundMonthlyTemps,              !- Feature Name 21
  String,                                 !- Feature Data Type 21
  44.08306285945173&#4440.89570904991865&#4440.64045432632048&#4442.153016571250646&#4448.225111118704206&#4454.268919273837525&#4459.508577937551024&#4462.82777283423508&#4463.10975667174995&#4460.41014950381947&#4455.304105212311526&#4449.445696474514364, !- Feature Value 21
  EPWDataWSF,                             !- Feature Name 22
  Double,                                 !- Feature Data Type 22
  0.58999999999999997,                    !- Feature Value 22
  EPWDataMonthlyAvgDailyHighDrybulbs,     !- Feature Name 23
  String,                                 !- Feature Data Type 23
  47.41032258064516&#4446.58642857142857&#4455.15032258064517&#4453.708&#4472.80193548387098&#4488.67600000000002&#4486.1858064516129&#4485.87225806451613&#4482.082&#4463.18064516129033&#4448.73400000000001&#4448.87935483870968, !- Feature Value 23
  EPWDataMonthlyAvgDailyLowDrybulbs,      !- Feature Name 24
  String,                                 !- Feature Data Type 24
  19.347741935483874&#4419.856428571428573&#4430.316129032258065&#4431.112&#4447.41612903225806&#4457.901999999999994&#4459.063870967741934&#4460.956774193548384&#4452.352000000000004&#4438.41612903225806&#4427.002000000000002&#4423.02903225806451, !- Feature Value 24
  EPWDesignHeatingDrybulb,                !- Feature Name 25
  Double,                                 !- Feature Data Type 25
  12.02,                                  !- Feature Value 25
  EPWDesignHeatingWindspeed,              !- Feature Name 26
  Double,                                 !- Feature Data Type 26
  2.8062500000000004,                     !- Feature Value 26
  EPWDesignCoolingDrybulb,                !- Feature Name 27
  Double,                                 !- Feature Data Type 27
  91.939999999999998,                     !- Feature Value 27
  EPWDesignCoolingWetbulb,                !- Feature Name 28
  Double,                                 !- Feature Data Type 28
  59.95131430195849,                      !- Feature Value 28
  EPWDesignCoolingHumidityRatio,          !- Feature Name 29
  Double,                                 !- Feature Data Type 29
  0.0059161086834698092,                  !- Feature Value 29
  EPWDesignCoolingWindspeed,              !- Feature Name 30
  Double,                                 !- Feature Data Type 30
  3.7999999999999989,                     !- Feature Value 30
  EPWDesignDailyTemperatureRange,         !- Feature Name 31
  Double,                                 !- Feature Data Type 31
  24.915483870967748,                     !- Feature Value 31
  EPWDesignDehumidDrybulb,                !- Feature Name 32
  Double,                                 !- Feature Data Type 32
  67.996785714285721,                     !- Feature Value 32
  EPWDesignDehumidHumidityRatio,          !- Feature Name 33
  Double,                                 !- Feature Data Type 33
  0.012133744170488724,                   !- Feature Value 33
  EPWDesignCoolingDirectNormal,           !- Feature Name 34
  Double,                                 !- Feature Data Type 34
  985,                                    !- Feature Value 34
  EPWDesignCoolingDiffuseHorizontal,      !- Feature Name 35
  Double,                                 !- Feature Data Type 35
  84;                                     !- Feature Value 35

OS:Site,
  {469add60-8c4a-4d09-9163-7c857db78dfb}, !- Handle
  Denver Intl Ap_CO_USA,                  !- Name
  39.83,                                  !- Latitude {deg}
  -104.65,                                !- Longitude {deg}
  -7,                                     !- Time Zone {hr}
  1650,                                   !- Elevation {m}
  ;                                       !- Terrain

OS:ClimateZones,
  {ac470030-bfc4-4ccf-84a4-bee738150ec6}, !- Handle
  ,                                       !- Active Institution
  ,                                       !- Active Year
  ,                                       !- Climate Zone Institution Name 1
  ,                                       !- Climate Zone Document Name 1
  ,                                       !- Climate Zone Document Year 1
  ,                                       !- Climate Zone Value 1
  Building America,                       !- Climate Zone Institution Name 2
  ,                                       !- Climate Zone Document Name 2
  0,                                      !- Climate Zone Document Year 2
  Cold;                                   !- Climate Zone Value 2

OS:Site:WaterMainsTemperature,
  {9c4e8744-3202-40dd-b585-189e24e36697}, !- Handle
  Correlation,                            !- Calculation Method
  ,                                       !- Temperature Schedule Name
  10.8753424657535,                       !- Annual Average Outdoor Air Temperature {C}
  23.1524007936508;                       !- Maximum Difference In Monthly Average Outdoor Air Temperatures {deltaC}

OS:RunPeriodControl:DaylightSavingTime,
  {90b622a5-bad5-4629-bf83-6d7190f6a744}, !- Handle
  4/7,                                    !- Start Date
  10/26;                                  !- End Date

OS:Site:GroundTemperature:Deep,
  {a6ae1479-c9e7-4508-ac61-956cfe41c575}, !- Handle
  10.8753424657535,                       !- January Deep Ground Temperature {C}
  10.8753424657535,                       !- February Deep Ground Temperature {C}
  10.8753424657535,                       !- March Deep Ground Temperature {C}
  10.8753424657535,                       !- April Deep Ground Temperature {C}
  10.8753424657535,                       !- May Deep Ground Temperature {C}
  10.8753424657535,                       !- June Deep Ground Temperature {C}
  10.8753424657535,                       !- July Deep Ground Temperature {C}
  10.8753424657535,                       !- August Deep Ground Temperature {C}
  10.8753424657535,                       !- September Deep Ground Temperature {C}
  10.8753424657535,                       !- October Deep Ground Temperature {C}
  10.8753424657535,                       !- November Deep Ground Temperature {C}
  10.8753424657535;                       !- December Deep Ground Temperature {C}

OS:Building,
  {bf801125-9947-44ef-90b4-040d051815e0}, !- Handle
  Building 1,                             !- Name
  ,                                       !- Building Sector Type
  ,                                       !- North Axis {deg}
  ,                                       !- Nominal Floor to Floor Height {m}
  ,                                       !- Space Type Name
  ,                                       !- Default Construction Set Name
  ,                                       !- Default Schedule Set Name
  1,                                      !- Standards Number of Stories
  1,                                      !- Standards Number of Above Ground Stories
  ,                                       !- Standards Template
  singlefamilyattached,                   !- Standards Building Type
  4;                                      !- Standards Number of Living Units

OS:AdditionalProperties,
  {5a8ae348-4b26-4559-b659-3be3c8d913c8}, !- Handle
  {bf801125-9947-44ef-90b4-040d051815e0}, !- Object Name
  Total Units Represented,                !- Feature Name 1
  Integer,                                !- Feature Data Type 1
  4,                                      !- Feature Value 1
  Total Units Modeled,                    !- Feature Name 2
  Integer,                                !- Feature Data Type 2
  4;                                      !- Feature Value 2

OS:ThermalZone,
  {1b0d96ab-2f9f-4fb0-8009-06f64ed3cd86}, !- Handle
  living zone,                            !- Name
  ,                                       !- Multiplier
  ,                                       !- Ceiling Height {m}
  ,                                       !- Volume {m3}
  ,                                       !- Floor Area {m2}
  ,                                       !- Zone Inside Convection Algorithm
  ,                                       !- Zone Outside Convection Algorithm
  ,                                       !- Zone Conditioning Equipment List Name
  {3c67ee35-1ba7-4b3b-9fed-6d30344c4964}, !- Zone Air Inlet Port List
  {143635bb-82e2-479e-8c10-a668601da96c}, !- Zone Air Exhaust Port List
  {0fb22519-5e3f-4a16-a5c7-fd0ac3994c9b}, !- Zone Air Node Name
  {b9f3b218-f30c-4daa-8407-5f55d4993a18}, !- Zone Return Air Port List
  ,                                       !- Primary Daylighting Control Name
  ,                                       !- Fraction of Zone Controlled by Primary Daylighting Control
  ,                                       !- Secondary Daylighting Control Name
  ,                                       !- Fraction of Zone Controlled by Secondary Daylighting Control
  ,                                       !- Illuminance Map Name
  ,                                       !- Group Rendering Name
  ,                                       !- Thermostat Name
  No;                                     !- Use Ideal Air Loads

OS:Node,
  {0e727e5a-edbd-4990-bcb2-b67505ab3c96}, !- Handle
  Node 1,                                 !- Name
  {0fb22519-5e3f-4a16-a5c7-fd0ac3994c9b}, !- Inlet Port
  ;                                       !- Outlet Port

OS:Connection,
  {0fb22519-5e3f-4a16-a5c7-fd0ac3994c9b}, !- Handle
  {1658ae98-e838-4886-ab9f-10bd453f0afb}, !- Name
  {1b0d96ab-2f9f-4fb0-8009-06f64ed3cd86}, !- Source Object
  11,                                     !- Outlet Port
  {0e727e5a-edbd-4990-bcb2-b67505ab3c96}, !- Target Object
  2;                                      !- Inlet Port

OS:PortList,
  {3c67ee35-1ba7-4b3b-9fed-6d30344c4964}, !- Handle
  {8baf10d3-0ee7-44c8-ae9a-f7c1050eb3ab}, !- Name
  {1b0d96ab-2f9f-4fb0-8009-06f64ed3cd86}; !- HVAC Component

OS:PortList,
  {143635bb-82e2-479e-8c10-a668601da96c}, !- Handle
  {041749ea-4315-48d0-bb22-ae14c9f901b6}, !- Name
  {1b0d96ab-2f9f-4fb0-8009-06f64ed3cd86}; !- HVAC Component

OS:PortList,
  {b9f3b218-f30c-4daa-8407-5f55d4993a18}, !- Handle
  {5881eeb1-e00d-412c-bea8-467e409a9523}, !- Name
  {1b0d96ab-2f9f-4fb0-8009-06f64ed3cd86}; !- HVAC Component

OS:Sizing:Zone,
  {343f9951-eb29-4f82-8ee3-d9ad68cbf160}, !- Handle
  {1b0d96ab-2f9f-4fb0-8009-06f64ed3cd86}, !- Zone or ZoneList Name
  SupplyAirTemperature,                   !- Zone Cooling Design Supply Air Temperature Input Method
  14,                                     !- Zone Cooling Design Supply Air Temperature {C}
  11.11,                                  !- Zone Cooling Design Supply Air Temperature Difference {deltaC}
  SupplyAirTemperature,                   !- Zone Heating Design Supply Air Temperature Input Method
  40,                                     !- Zone Heating Design Supply Air Temperature {C}
  11.11,                                  !- Zone Heating Design Supply Air Temperature Difference {deltaC}
  0.0085,                                 !- Zone Cooling Design Supply Air Humidity Ratio {kg-H2O/kg-air}
  0.008,                                  !- Zone Heating Design Supply Air Humidity Ratio {kg-H2O/kg-air}
  ,                                       !- Zone Heating Sizing Factor
  ,                                       !- Zone Cooling Sizing Factor
  DesignDay,                              !- Cooling Design Air Flow Method
  ,                                       !- Cooling Design Air Flow Rate {m3/s}
  ,                                       !- Cooling Minimum Air Flow per Zone Floor Area {m3/s-m2}
  ,                                       !- Cooling Minimum Air Flow {m3/s}
  ,                                       !- Cooling Minimum Air Flow Fraction
  DesignDay,                              !- Heating Design Air Flow Method
  ,                                       !- Heating Design Air Flow Rate {m3/s}
  ,                                       !- Heating Maximum Air Flow per Zone Floor Area {m3/s-m2}
  ,                                       !- Heating Maximum Air Flow {m3/s}
  ,                                       !- Heating Maximum Air Flow Fraction
  ,                                       !- Design Zone Air Distribution Effectiveness in Cooling Mode
  ,                                       !- Design Zone Air Distribution Effectiveness in Heating Mode
  No,                                     !- Account for Dedicated Outdoor Air System
  NeutralSupplyAir,                       !- Dedicated Outdoor Air System Control Strategy
  autosize,                               !- Dedicated Outdoor Air Low Setpoint Temperature for Design {C}
  autosize;                               !- Dedicated Outdoor Air High Setpoint Temperature for Design {C}

OS:ZoneHVAC:EquipmentList,
  {3f7b342d-8622-4233-af12-22141a924a1d}, !- Handle
  Zone HVAC Equipment List 1,             !- Name
  {1b0d96ab-2f9f-4fb0-8009-06f64ed3cd86}; !- Thermal Zone

OS:Space,
  {9d9ef67d-b625-43d6-8ecb-38b2570954e8}, !- Handle
  living space,                           !- Name
  {909e4e36-f04c-4e88-bc54-674db8317b7e}, !- Space Type Name
  ,                                       !- Default Construction Set Name
  ,                                       !- Default Schedule Set Name
  ,                                       !- Direction of Relative North {deg}
  ,                                       !- X Origin {m}
  ,                                       !- Y Origin {m}
  ,                                       !- Z Origin {m}
  ,                                       !- Building Story Name
  {1b0d96ab-2f9f-4fb0-8009-06f64ed3cd86}, !- Thermal Zone Name
  ,                                       !- Part of Total Floor Area
  ,                                       !- Design Specification Outdoor Air Object Name
  {49e07cd0-9e8c-4844-be4b-5ef487f43199}; !- Building Unit Name

OS:Surface,
  {b65eaf5f-90b5-4ec2-a0e2-5d8c32f146e0}, !- Handle
  Surface 1,                              !- Name
  Floor,                                  !- Surface Type
  ,                                       !- Construction Name
  {9d9ef67d-b625-43d6-8ecb-38b2570954e8}, !- Space Name
  Foundation,                             !- Outside Boundary Condition
  ,                                       !- Outside Boundary Condition Object
  NoSun,                                  !- Sun Exposure
  NoWind,                                 !- Wind Exposure
  ,                                       !- View Factor to Ground
  ,                                       !- Number of Vertices
  0, -12.9315688143396, 0,                !- X,Y,Z Vertex 1 {m}
  0, 0, 0,                                !- X,Y,Z Vertex 2 {m}
  6.46578440716979, 0, 0,                 !- X,Y,Z Vertex 3 {m}
  6.46578440716979, -12.9315688143396, 0; !- X,Y,Z Vertex 4 {m}

OS:Surface,
  {609e5a84-f858-4a0c-9296-d6a6893c52d8}, !- Handle
  Surface 2,                              !- Name
  Wall,                                   !- Surface Type
  ,                                       !- Construction Name
  {9d9ef67d-b625-43d6-8ecb-38b2570954e8}, !- Space Name
  Outdoors,                               !- Outside Boundary Condition
  ,                                       !- Outside Boundary Condition Object
  SunExposed,                             !- Sun Exposure
  WindExposed,                            !- Wind Exposure
  ,                                       !- View Factor to Ground
  ,                                       !- Number of Vertices
  0, 0, 2.4384,                           !- X,Y,Z Vertex 1 {m}
  0, 0, 0,                                !- X,Y,Z Vertex 2 {m}
  0, -12.9315688143396, 0,                !- X,Y,Z Vertex 3 {m}
  0, -12.9315688143396, 2.4384;           !- X,Y,Z Vertex 4 {m}

OS:Surface,
  {2a29165d-3157-471d-81cc-4acc996f1699}, !- Handle
  Surface 3,                              !- Name
  Wall,                                   !- Surface Type
  ,                                       !- Construction Name
  {9d9ef67d-b625-43d6-8ecb-38b2570954e8}, !- Space Name
  Outdoors,                               !- Outside Boundary Condition
  ,                                       !- Outside Boundary Condition Object
  SunExposed,                             !- Sun Exposure
  WindExposed,                            !- Wind Exposure
  ,                                       !- View Factor to Ground
  ,                                       !- Number of Vertices
  6.46578440716979, 0, 2.4384,            !- X,Y,Z Vertex 1 {m}
  6.46578440716979, 0, 0,                 !- X,Y,Z Vertex 2 {m}
  0, 0, 0,                                !- X,Y,Z Vertex 3 {m}
  0, 0, 2.4384;                           !- X,Y,Z Vertex 4 {m}

OS:Surface,
  {59c302f5-3de8-4fd4-8cdf-5167f8417e87}, !- Handle
  Surface 4,                              !- Name
  Wall,                                   !- Surface Type
  ,                                       !- Construction Name
  {9d9ef67d-b625-43d6-8ecb-38b2570954e8}, !- Space Name
  Surface,                                !- Outside Boundary Condition
  {cd8c6477-f5f7-4057-aaaf-026da10013fa}, !- Outside Boundary Condition Object
  NoSun,                                  !- Sun Exposure
  NoWind,                                 !- Wind Exposure
  ,                                       !- View Factor to Ground
  ,                                       !- Number of Vertices
  6.46578440716979, -12.9315688143396, 2.4384, !- X,Y,Z Vertex 1 {m}
  6.46578440716979, -12.9315688143396, 0, !- X,Y,Z Vertex 2 {m}
  6.46578440716979, 0, 0,                 !- X,Y,Z Vertex 3 {m}
  6.46578440716979, 0, 2.4384;            !- X,Y,Z Vertex 4 {m}

OS:Surface,
  {93c176d5-9ee7-4eb0-8c51-ca4329f20b52}, !- Handle
  Surface 5,                              !- Name
  Wall,                                   !- Surface Type
  ,                                       !- Construction Name
  {9d9ef67d-b625-43d6-8ecb-38b2570954e8}, !- Space Name
  Outdoors,                               !- Outside Boundary Condition
  ,                                       !- Outside Boundary Condition Object
  SunExposed,                             !- Sun Exposure
  WindExposed,                            !- Wind Exposure
  ,                                       !- View Factor to Ground
  ,                                       !- Number of Vertices
  0, -12.9315688143396, 2.4384,           !- X,Y,Z Vertex 1 {m}
  0, -12.9315688143396, 0,                !- X,Y,Z Vertex 2 {m}
  6.46578440716979, -12.9315688143396, 0, !- X,Y,Z Vertex 3 {m}
  6.46578440716979, -12.9315688143396, 2.4384; !- X,Y,Z Vertex 4 {m}

OS:Surface,
  {a79c15ce-66f6-4870-949b-0d1bc8b857ab}, !- Handle
  Surface 6,                              !- Name
  RoofCeiling,                            !- Surface Type
  ,                                       !- Construction Name
  {9d9ef67d-b625-43d6-8ecb-38b2570954e8}, !- Space Name
  Surface,                                !- Outside Boundary Condition
  {509c58af-7b5d-4c48-bb1e-3cf1d9f9856f}, !- Outside Boundary Condition Object
  NoSun,                                  !- Sun Exposure
  NoWind,                                 !- Wind Exposure
  ,                                       !- View Factor to Ground
  ,                                       !- Number of Vertices
  6.46578440716979, -12.9315688143396, 2.4384, !- X,Y,Z Vertex 1 {m}
  6.46578440716979, 0, 2.4384,            !- X,Y,Z Vertex 2 {m}
  0, 0, 2.4384,                           !- X,Y,Z Vertex 3 {m}
  0, -12.9315688143396, 2.4384;           !- X,Y,Z Vertex 4 {m}

OS:SpaceType,
  {909e4e36-f04c-4e88-bc54-674db8317b7e}, !- Handle
  Space Type 1,                           !- Name
  ,                                       !- Default Construction Set Name
  ,                                       !- Default Schedule Set Name
  ,                                       !- Group Rendering Name
  ,                                       !- Design Specification Outdoor Air Object Name
  ,                                       !- Standards Template
  ,                                       !- Standards Building Type
  living;                                 !- Standards Space Type

OS:ThermalZone,
  {865fac1d-a935-4f2f-aaa2-00728deedc34}, !- Handle
  living zone|unit 2,                     !- Name
  ,                                       !- Multiplier
  ,                                       !- Ceiling Height {m}
  ,                                       !- Volume {m3}
  ,                                       !- Floor Area {m2}
  ,                                       !- Zone Inside Convection Algorithm
  ,                                       !- Zone Outside Convection Algorithm
  ,                                       !- Zone Conditioning Equipment List Name
  {b212add7-5014-41e9-9fca-c34858135ff3}, !- Zone Air Inlet Port List
  {49aa5b34-e5e6-4be2-8a81-deae811359ee}, !- Zone Air Exhaust Port List
  {d5ee499f-33cb-47ef-ae0a-e06cc7144109}, !- Zone Air Node Name
  {a7ab57b3-9f1e-44a8-961e-3d214575b0e3}, !- Zone Return Air Port List
  ,                                       !- Primary Daylighting Control Name
  ,                                       !- Fraction of Zone Controlled by Primary Daylighting Control
  ,                                       !- Secondary Daylighting Control Name
  ,                                       !- Fraction of Zone Controlled by Secondary Daylighting Control
  ,                                       !- Illuminance Map Name
  ,                                       !- Group Rendering Name
  ,                                       !- Thermostat Name
  No;                                     !- Use Ideal Air Loads

OS:Node,
  {c6c89b33-dd32-4f4f-a0e2-b8fe3de490a9}, !- Handle
  Node 2,                                 !- Name
  {d5ee499f-33cb-47ef-ae0a-e06cc7144109}, !- Inlet Port
  ;                                       !- Outlet Port

OS:Connection,
  {d5ee499f-33cb-47ef-ae0a-e06cc7144109}, !- Handle
  {248b77b0-74d9-467b-8c7b-94cdb846d4a8}, !- Name
  {865fac1d-a935-4f2f-aaa2-00728deedc34}, !- Source Object
  11,                                     !- Outlet Port
  {c6c89b33-dd32-4f4f-a0e2-b8fe3de490a9}, !- Target Object
  2;                                      !- Inlet Port

OS:PortList,
  {b212add7-5014-41e9-9fca-c34858135ff3}, !- Handle
  {a3a08395-cc17-4554-a90c-5e863c43fd9b}, !- Name