!- NOTE: Auto-generated from /test/osw_files/SFA_4units_1story_SL_UA_3Beds_2Baths_Denver_ElectricBaseboard.osw

OS:Version,
  {08dd3055-7f7e-4faf-b51f-c58a324e9c00}, !- Handle
  2.8.1;                                  !- Version Identifier

OS:SimulationControl,
  {760dffb5-ab49-4bdc-9ca0-fb1edf3300ca}, !- Handle
  ,                                       !- Do Zone Sizing Calculation
  ,                                       !- Do System Sizing Calculation
  ,                                       !- Do Plant Sizing Calculation
  No;                                     !- Run Simulation for Sizing Periods

OS:Timestep,
  {c34563b1-32f4-489c-bc46-47a8a97cbc2f}, !- Handle
  6;                                      !- Number of Timesteps per Hour

OS:ShadowCalculation,
  {fcaf946c-2039-4583-a65d-cbf80b930175}, !- Handle
  20,                                     !- Calculation Frequency
  200;                                    !- Maximum Figures in Shadow Overlap Calculations

OS:SurfaceConvectionAlgorithm:Outside,
  {67afe3f1-6924-4ecc-9375-2e629c976cd7}, !- Handle
  DOE-2;                                  !- Algorithm

OS:SurfaceConvectionAlgorithm:Inside,
  {77fe339d-058c-4bb3-8956-565396673ae9}, !- Handle
  TARP;                                   !- Algorithm

OS:ZoneCapacitanceMultiplier:ResearchSpecial,
  {dbefc1ba-c7b5-428b-8c28-d5c801492ffb}, !- Handle
  ,                                       !- Temperature Capacity Multiplier
  15,                                     !- Humidity Capacity Multiplier
  ;                                       !- Carbon Dioxide Capacity Multiplier

OS:RunPeriod,
  {4f69c17f-c037-4ba6-b87d-3d1066018f1e}, !- Handle
  Run Period 1,                           !- Name
  1,                                      !- Begin Month
  1,                                      !- Begin Day of Month
  12,                                     !- End Month
  31,                                     !- End Day of Month
  ,                                       !- Use Weather File Holidays and Special Days
  ,                                       !- Use Weather File Daylight Saving Period
  ,                                       !- Apply Weekend Holiday Rule
  ,                                       !- Use Weather File Rain Indicators
  ,                                       !- Use Weather File Snow Indicators
  ;                                       !- Number of Times Runperiod to be Repeated

OS:ThermalZone,
  {37895183-c9aa-42c3-8874-51270977fabd}, !- Handle
  living zone,                            !- Name
  ,                                       !- Multiplier
  ,                                       !- Ceiling Height {m}
  ,                                       !- Volume {m3}
  ,                                       !- Floor Area {m2}
  ,                                       !- Zone Inside Convection Algorithm
  ,                                       !- Zone Outside Convection Algorithm
  ,                                       !- Zone Conditioning Equipment List Name
  {24d7ea24-6f1e-4e9d-bf73-fd9c6449b8bc}, !- Zone Air Inlet Port List
  {3b656bec-e9bf-4d4d-b439-164e74f87c17}, !- Zone Air Exhaust Port List
  {47b7e898-384e-4b61-9e8d-5645e936a232}, !- Zone Air Node Name
  {c335e3da-5972-435a-beea-3a96199ba0e5}, !- Zone Return Air Port List
  ,                                       !- Primary Daylighting Control Name
  ,                                       !- Fraction of Zone Controlled by Primary Daylighting Control
  ,                                       !- Secondary Daylighting Control Name
  ,                                       !- Fraction of Zone Controlled by Secondary Daylighting Control
  ,                                       !- Illuminance Map Name
  ,                                       !- Group Rendering Name
  {585a20e6-84b1-4cee-b6d7-441b60370549}, !- Thermostat Name
  No;                                     !- Use Ideal Air Loads

OS:Node,
  {79c1a320-f9e2-44fa-a037-43f40b38ac5d}, !- Handle
  Node 1,                                 !- Name
  {47b7e898-384e-4b61-9e8d-5645e936a232}, !- Inlet Port
  ;                                       !- Outlet Port

OS:Connection,
  {47b7e898-384e-4b61-9e8d-5645e936a232}, !- Handle
  {0f9aaf1d-7e8a-4061-9d75-f5c4b82e11d5}, !- Name
  {37895183-c9aa-42c3-8874-51270977fabd}, !- Source Object
  11,                                     !- Outlet Port
  {79c1a320-f9e2-44fa-a037-43f40b38ac5d}, !- Target Object
  2;                                      !- Inlet Port

OS:PortList,
  {24d7ea24-6f1e-4e9d-bf73-fd9c6449b8bc}, !- Handle
  {116a4d5b-0fb8-4b3e-afc5-ebbd26995359}, !- Name
  {37895183-c9aa-42c3-8874-51270977fabd}; !- HVAC Component

OS:PortList,
  {3b656bec-e9bf-4d4d-b439-164e74f87c17}, !- Handle
  {023d1b80-81eb-46fd-9262-5ed9234b1c87}, !- Name
  {37895183-c9aa-42c3-8874-51270977fabd}; !- HVAC Component

OS:PortList,
  {c335e3da-5972-435a-beea-3a96199ba0e5}, !- Handle
  {c7608270-3d86-4766-bcee-eae3c202f342}, !- Name
  {37895183-c9aa-42c3-8874-51270977fabd}; !- HVAC Component

OS:Sizing:Zone,
  {6163cbce-323e-4faa-b140-8e404699341e}, !- Handle
  {37895183-c9aa-42c3-8874-51270977fabd}, !- Zone or ZoneList Name
  SupplyAirTemperature,                   !- Zone Cooling Design Supply Air Temperature Input Method
  14,                                     !- Zone Cooling Design Supply Air Temperature {C}
  11.11,                                  !- Zone Cooling Design Supply Air Temperature Difference {deltaC}
  SupplyAirTemperature,                   !- Zone Heating Design Supply Air Temperature Input Method
  40,                                     !- Zone Heating Design Supply Air Temperature {C}
  11.11,                                  !- Zone Heating Design Supply Air Temperature Difference {deltaC}
  0.0085,                                 !- Zone Cooling Design Supply Air Humidity Ratio {kg-H2O/kg-air}
  0.008,                                  !- Zone Heating Design Supply Air Humidity Ratio {kg-H2O/kg-air}
  ,                                       !- Zone Heating Sizing Factor
  ,                                       !- Zone Cooling Sizing Factor
  DesignDay,                              !- Cooling Design Air Flow Method
  ,                                       !- Cooling Design Air Flow Rate {m3/s}
  ,                                       !- Cooling Minimum Air Flow per Zone Floor Area {m3/s-m2}
  ,                                       !- Cooling Minimum Air Flow {m3/s}
  ,                                       !- Cooling Minimum Air Flow Fraction
  DesignDay,                              !- Heating Design Air Flow Method
  ,                                       !- Heating Design Air Flow Rate {m3/s}
  ,                                       !- Heating Maximum Air Flow per Zone Floor Area {m3/s-m2}
  ,                                       !- Heating Maximum Air Flow {m3/s}
  ,                                       !- Heating Maximum Air Flow Fraction
  ,                                       !- Design Zone Air Distribution Effectiveness in Cooling Mode
  ,                                       !- Design Zone Air Distribution Effectiveness in Heating Mode
  No,                                     !- Account for Dedicated Outdoor Air System
  NeutralSupplyAir,                       !- Dedicated Outdoor Air System Control Strategy
  autosize,                               !- Dedicated Outdoor Air Low Setpoint Temperature for Design {C}
  autosize;                               !- Dedicated Outdoor Air High Setpoint Temperature for Design {C}

OS:ZoneHVAC:EquipmentList,
  {1f5a48f2-589c-4872-b2c0-49cfcdcc519e}, !- Handle
  Zone HVAC Equipment List 1,             !- Name
  {37895183-c9aa-42c3-8874-51270977fabd}, !- Thermal Zone
  SequentialLoad,                         !- Load Distribution Scheme
  {0be1a292-7ad9-49aa-9073-ea28ce8d30b7}, !- Zone Equipment 1
  1,                                      !- Zone Equipment Cooling Sequence 1
  1,                                      !- Zone Equipment Heating or No-Load Sequence 1
  ,                                       !- Zone Equipment Sequential Cooling Fraction 1
  ;                                       !- Zone Equipment Sequential Heating Fraction 1

OS:Space,
  {26b8d00d-4e16-4dd5-8ee0-42e21db797af}, !- Handle
  living space,                           !- Name
  {79be76e5-d05c-4928-8803-852ef9af357a}, !- Space Type Name
  ,                                       !- Default Construction Set Name
  ,                                       !- Default Schedule Set Name
  ,                                       !- Direction of Relative North {deg}
  ,                                       !- X Origin {m}
  ,                                       !- Y Origin {m}
  ,                                       !- Z Origin {m}
  ,                                       !- Building Story Name
  {37895183-c9aa-42c3-8874-51270977fabd}, !- Thermal Zone Name
  ,                                       !- Part of Total Floor Area
  ,                                       !- Design Specification Outdoor Air Object Name
  {61b71d17-5a31-4aa2-84b4-3fc1449c9401}; !- Building Unit Name

OS:Surface,
  {01afde4d-829b-4968-9e9e-71a11bca1272}, !- Handle
  Surface 1,                              !- Name
  Floor,                                  !- Surface Type
  ,                                       !- Construction Name
  {26b8d00d-4e16-4dd5-8ee0-42e21db797af}, !- Space Name
  Foundation,                             !- Outside Boundary Condition
  ,                                       !- Outside Boundary Condition Object
  NoSun,                                  !- Sun Exposure
  NoWind,                                 !- Wind Exposure
  ,                                       !- View Factor to Ground
  ,                                       !- Number of Vertices
  0, -12.9315688143396, 0,                !- X,Y,Z Vertex 1 {m}
  0, 0, 0,                                !- X,Y,Z Vertex 2 {m}
  6.46578440716979, 0, 0,                 !- X,Y,Z Vertex 3 {m}
  6.46578440716979, -12.9315688143396, 0; !- X,Y,Z Vertex 4 {m}

OS:Surface,
  {e61a7a8a-6c78-419c-afd5-c5d72031c319}, !- Handle
  Surface 2,                              !- Name
  Wall,                                   !- Surface Type
  ,                                       !- Construction Name
  {26b8d00d-4e16-4dd5-8ee0-42e21db797af}, !- Space Name
  Outdoors,                               !- Outside Boundary Condition
  ,                                       !- Outside Boundary Condition Object
  SunExposed,                             !- Sun Exposure
  WindExposed,                            !- Wind Exposure
  ,                                       !- View Factor to Ground
  ,                                       !- Number of Vertices
  0, 0, 2.4384,                           !- X,Y,Z Vertex 1 {m}
  0, 0, 0,                                !- X,Y,Z Vertex 2 {m}
  0, -12.9315688143396, 0,                !- X,Y,Z Vertex 3 {m}
  0, -12.9315688143396, 2.4384;           !- X,Y,Z Vertex 4 {m}

OS:Surface,
  {43818300-261a-47de-aeae-99c62632b916}, !- Handle
  Surface 3,                              !- Name
  Wall,                                   !- Surface Type
  ,                                       !- Construction Name
  {26b8d00d-4e16-4dd5-8ee0-42e21db797af}, !- Space Name
  Outdoors,                               !- Outside Boundary Condition
  ,                                       !- Outside Boundary Condition Object
  SunExposed,                             !- Sun Exposure
  WindExposed,                            !- Wind Exposure
  ,                                       !- View Factor to Ground
  ,                                       !- Number of Vertices
  6.46578440716979, 0, 2.4384,            !- X,Y,Z Vertex 1 {m}
  6.46578440716979, 0, 0,                 !- X,Y,Z Vertex 2 {m}
  0, 0, 0,                                !- X,Y,Z Vertex 3 {m}
  0, 0, 2.4384;                           !- X,Y,Z Vertex 4 {m}

OS:Surface,
  {5d3ae9b4-2239-4f4d-962c-b59b7f510baf}, !- Handle
  Surface 4,                              !- Name
  Wall,                                   !- Surface Type
  ,                                       !- Construction Name
  {26b8d00d-4e16-4dd5-8ee0-42e21db797af}, !- Space Name
  Surface,                                !- Outside Boundary Condition
  {42dc2d68-4683-4338-a0be-4a5682533153}, !- Outside Boundary Condition Object
  NoSun,                                  !- Sun Exposure
  NoWind,                                 !- Wind Exposure
  ,                                       !- View Factor to Ground
  ,                                       !- Number of Vertices
  6.46578440716979, -12.9315688143396, 2.4384, !- X,Y,Z Vertex 1 {m}
  6.46578440716979, -12.9315688143396, 0, !- X,Y,Z Vertex 2 {m}
  6.46578440716979, 0, 0,                 !- X,Y,Z Vertex 3 {m}
  6.46578440716979, 0, 2.4384;            !- X,Y,Z Vertex 4 {m}

OS:Surface,
  {371c0ece-7ce8-446a-9d0d-05964d2ec71f}, !- Handle
  Surface 5,                              !- Name
  Wall,                                   !- Surface Type
  ,                                       !- Construction Name
  {26b8d00d-4e16-4dd5-8ee0-42e21db797af}, !- Space Name
  Outdoors,                               !- Outside Boundary Condition
  ,                                       !- Outside Boundary Condition Object
  SunExposed,                             !- Sun Exposure
  WindExposed,                            !- Wind Exposure
  ,                                       !- View Factor to Ground
  ,                                       !- Number of Vertices
  0, -12.9315688143396, 2.4384,           !- X,Y,Z Vertex 1 {m}
  0, -12.9315688143396, 0,                !- X,Y,Z Vertex 2 {m}
  6.46578440716979, -12.9315688143396, 0, !- X,Y,Z Vertex 3 {m}
  6.46578440716979, -12.9315688143396, 2.4384; !- X,Y,Z Vertex 4 {m}

OS:Surface,
  {a4f9882e-95a5-405b-9594-06b2b8969a0e}, !- Handle
  Surface 6,                              !- Name
  RoofCeiling,                            !- Surface Type
  ,                                       !- Construction Name
  {26b8d00d-4e16-4dd5-8ee0-42e21db797af}, !- Space Name
  Surface,                                !- Outside Boundary Condition
  {8d72263f-142c-4b4f-a5e1-584cc65454b9}, !- Outside Boundary Condition Object
  NoSun,                                  !- Sun Exposure
  NoWind,                                 !- Wind Exposure
  ,                                       !- View Factor to Ground
  ,                                       !- Number of Vertices
  6.46578440716979, -12.9315688143396, 2.4384, !- X,Y,Z Vertex 1 {m}
  6.46578440716979, 0, 2.4384,            !- X,Y,Z Vertex 2 {m}
  0, 0, 2.4384,                           !- X,Y,Z Vertex 3 {m}
  0, -12.9315688143396, 2.4384;           !- X,Y,Z Vertex 4 {m}

OS:SpaceType,
  {79be76e5-d05c-4928-8803-852ef9af357a}, !- Handle
  Space Type 1,                           !- Name
  ,                                       !- Default Construction Set Name
  ,                                       !- Default Schedule Set Name
  ,                                       !- Group Rendering Name
  ,                                       !- Design Specification Outdoor Air Object Name
  ,                                       !- Standards Template
  ,                                       !- Standards Building Type
  living;                                 !- Standards Space Type

OS:ThermalZone,
  {0c544c76-c362-4d4d-9122-3b702d845a89}, !- Handle
  living zone|unit 2,                     !- Name
  ,                                       !- Multiplier
  ,                                       !- Ceiling Height {m}
  ,                                       !- Volume {m3}
  ,                                       !- Floor Area {m2}
  ,                                       !- Zone Inside Convection Algorithm
  ,                                       !- Zone Outside Convection Algorithm
  ,                                       !- Zone Conditioning Equipment List Name
  {d8f94024-1a95-412b-a135-78776a50f46a}, !- Zone Air Inlet Port List
  {c07e1e60-24c3-4b44-8403-0eb8ce031ab7}, !- Zone Air Exhaust Port List
  {5eb95d98-7131-4ae9-a9bb-a2b416c34865}, !- Zone Air Node Name
  {df957c5d-e6e7-486d-a14d-f1fa7432a7df}, !- Zone Return Air Port List
  ,                                       !- Primary Daylighting Control Name
  ,                                       !- Fraction of Zone Controlled by Primary Daylighting Control
  ,                                       !- Secondary Daylighting Control Name
  ,                                       !- Fraction of Zone Controlled by Secondary Daylighting Control
  ,                                       !- Illuminance Map Name
  ,                                       !- Group Rendering Name
  {4723cabc-9005-4324-a63d-59e72cd4eb1e}, !- Thermostat Name
  No;                                     !- Use Ideal Air Loads

OS:Node,
  {ad6ef5fb-5aa9-402b-84b2-838801f34bd5}, !- Handle
  Node 2,                                 !- Name
  {5eb95d98-7131-4ae9-a9bb-a2b416c34865}, !- Inlet Port
  ;                                       !- Outlet Port

OS:Connection,
  {5eb95d98-7131-4ae9-a9bb-a2b416c34865}, !- Handle
  {397d3314-8161-422a-997c-a8a7a276cb45}, !- Name
  {0c544c76-c362-4d4d-9122-3b702d845a89}, !- Source Object
  11,                                     !- Outlet Port
  {ad6ef5fb-5aa9-402b-84b2-838801f34bd5}, !- Target Object
  2;                                      !- Inlet Port

OS:PortList,
  {d8f94024-1a95-412b-a135-78776a50f46a}, !- Handle
  {c4e93a13-8d47-44ad-8d2c-ef6a3a9e5feb}, !- Name
  {0c544c76-c362-4d4d-9122-3b702d845a89}; !- HVAC Component

OS:PortList,
  {c07e1e60-24c3-4b44-8403-0eb8ce031ab7}, !- Handle
  {416455e7-ba03-4f7b-97cf-05a5682e6c2f}, !- Name
  {0c544c76-c362-4d4d-9122-3b702d845a89}; !- HVAC Component

OS:PortList,
  {df957c5d-e6e7-486d-a14d-f1fa7432a7df}, !- Handle
  {aeb1643f-7548-4d08-a0e4-fd8d2e0c44f4}, !- Name
  {0c544c76-c362-4d4d-9122-3b702d845a89}; !- HVAC Component

OS:Sizing:Zone,
  {6759bbbd-0c53-42ba-8324-a76b910a8a49}, !- Handle
  {0c544c76-c362-4d4d-9122-3b702d845a89}, !- Zone or ZoneList Name
  SupplyAirTemperature,                   !- Zone Cooling Design Supply Air Temperature Input Method
  14,                                     !- Zone Cooling Design Supply Air Temperature {C}
  11.11,                                  !- Zone Cooling Design Supply Air Temperature Difference {deltaC}
  SupplyAirTemperature,                   !- Zone Heating Design Supply Air Temperature Input Method
  40,                                     !- Zone Heating Design Supply Air Temperature {C}
  11.11,                                  !- Zone Heating Design Supply Air Temperature Difference {deltaC}
  0.0085,                                 !- Zone Cooling Design Supply Air Humidity Ratio {kg-H2O/kg-air}
  0.008,                                  !- Zone Heating Design Supply Air Humidity Ratio {kg-H2O/kg-air}
  ,                                       !- Zone Heating Sizing Factor
  ,                                       !- Zone Cooling Sizing Factor
  DesignDay,                              !- Cooling Design Air Flow Method
  ,                                       !- Cooling Design Air Flow Rate {m3/s}
  ,                                       !- Cooling Minimum Air Flow per Zone Floor Area {m3/s-m2}
  ,                                       !- Cooling Minimum Air Flow {m3/s}
  ,                                       !- Cooling Minimum Air Flow Fraction
  DesignDay,                              !- Heating Design Air Flow Method
  ,                                       !- Heating Design Air Flow Rate {m3/s}
  ,                                       !- Heating Maximum Air Flow per Zone Floor Area {m3/s-m2}
  ,                                       !- Heating Maximum Air Flow {m3/s}
  ,                                       !- Heating Maximum Air Flow Fraction
  ,                                       !- Design Zone Air Distribution Effectiveness in Cooling Mode
  ,                                       !- Design Zone Air Distribution Effectiveness in Heating Mode
  No,                                     !- Account for Dedicated Outdoor Air System
  NeutralSupplyAir,                       !- Dedicated Outdoor Air System Control Strategy
  autosize,                               !- Dedicated Outdoor Air Low Setpoint Temperature for Design {C}
  autosize;                               !- Dedicated Outdoor Air High Setpoint Temperature for Design {C}

OS:ZoneHVAC:EquipmentList,
  {eb466f47-6ac7-4e14-971f-23b207c72b13}, !- Handle
  Zone HVAC Equipment List 2,             !- Name
  {0c544c76-c362-4d4d-9122-3b702d845a89}, !- Thermal Zone
  SequentialLoad,                         !- Load Distribution Scheme
  {6ec1ca3f-794c-4428-9877-34d01a7aba5a}, !- Zone Equipment 1
  1,                                      !- Zone Equipment Cooling Sequence 1
  1,                                      !- Zone Equipment Heating or No-Load Sequence 1
  ,                                       !- Zone Equipment Sequential Cooling Fraction 1
  ;                                       !- Zone Equipment Sequential Heating Fraction 1

OS:Space,
  {0d0cffba-c734-4cbf-a5ad-05e94d3811ac}, !- Handle
  living space|unit 2|story 1,            !- Name
  {79be76e5-d05c-4928-8803-852ef9af357a}, !- Space Type Name
  ,                                       !- Default Construction Set Name
  ,                                       !- Default Schedule Set Name
  -0,                                     !- Direction of Relative North {deg}
  0,                                      !- X Origin {m}
  0,                                      !- Y Origin {m}
  0,                                      !- Z Origin {m}
  ,                                       !- Building Story Name
  {0c544c76-c362-4d4d-9122-3b702d845a89}, !- Thermal Zone Name
  ,                                       !- Part of Total Floor Area
  ,                                       !- Design Specification Outdoor Air Object Name
  {533cd71c-75de-4f01-9c94-69368a98d624}; !- Building Unit Name

OS:Surface,
  {42dc2d68-4683-4338-a0be-4a5682533153}, !- Handle
  Surface 12,                             !- Name
  Wall,                                   !- Surface Type
  ,                                       !- Construction Name
  {0d0cffba-c734-4cbf-a5ad-05e94d3811ac}, !- Space Name
  Surface,                                !- Outside Boundary Condition
  {5d3ae9b4-2239-4f4d-962c-b59b7f510baf}, !- Outside Boundary Condition Object
  NoSun,                                  !- Sun Exposure
  NoWind,                                 !- Wind Exposure
  ,                                       !- View Factor to Ground
  ,                                       !- Number of Vertices
  6.46578440716979, 0, 2.4384,            !- X,Y,Z Vertex 1 {m}
  6.46578440716979, 0, 0,                 !- X,Y,Z Vertex 2 {m}
  6.46578440716979, -12.9315688143396, 0, !- X,Y,Z Vertex 3 {m}
  6.46578440716979, -12.9315688143396, 2.4384; !- X,Y,Z Vertex 4 {m}

OS:Surface,
  {b895b099-7f49-48f0-ad97-23b0221ea71b}, !- Handle
  Surface 13,                             !- Name
  RoofCeiling,                            !- Surface Type
  ,                                       !- Construction Name
  {0d0cffba-c734-4cbf-a5ad-05e94d3811ac}, !- Space Name
  Surface,                                !- Outside Boundary Condition
  {d4144851-251b-468b-8eaf-a2f57456dafb}, !- Outside Boundary Condition Object
  NoSun,                                  !- Sun Exposure
  NoWind,                                 !- Wind Exposure
  ,                                       !- View Factor to Ground
  ,                                       !- Number of Vertices
  12.9315688143396, -12.9315688143396, 2.4384, !- X,Y,Z Vertex 1 {m}
  12.9315688143396, 0, 2.4384,            !- X,Y,Z Vertex 2 {m}
  6.46578440716979, 0, 2.4384,            !- X,Y,Z Vertex 3 {m}
  6.46578440716979, -12.9315688143396, 2.4384; !- X,Y,Z Vertex 4 {m}

OS:Surface,
  {48cf5f8f-3905-4f67-b6de-b699ed3510f7}, !- Handle
  Surface 14,                             !- Name
  Floor,                                  !- Surface Type
  ,                                       !- Construction Name
  {0d0cffba-c734-4cbf-a5ad-05e94d3811ac}, !- Space Name
  Foundation,                             !- Outside Boundary Condition
  ,                                       !- Outside Boundary Condition Object
  NoSun,                                  !- Sun Exposure
  NoWind,                                 !- Wind Exposure
  ,                                       !- View Factor to Ground
  ,                                       !- Number of Vertices
  6.46578440716979, -12.9315688143396, 0, !- X,Y,Z Vertex 1 {m}
  6.46578440716979, 0, 0,                 !- X,Y,Z Vertex 2 {m}
  12.9315688143396, 0, 0,                 !- X,Y,Z Vertex 3 {m}
  12.9315688143396, -12.9315688143396, 0; !- X,Y,Z Vertex 4 {m}

OS:Surface,
  {674cee24-5720-4cd5-9404-449d76f57be2}, !- Handle
  Surface 15,                             !- Name
  Wall,                                   !- Surface Type
  ,                                       !- Construction Name
  {0d0cffba-c734-4cbf-a5ad-05e94d3811ac}, !- Space Name
  Outdoors,                               !- Outside Boundary Condition
  ,                                       !- Outside Boundary Condition Object
  SunExposed,                             !- Sun Exposure
  WindExposed,                            !- Wind Exposure
  ,                                       !- View Factor to Ground
  ,                                       !- Number of Vertices
  12.9315688143396, 0, 2.4384,            !- X,Y,Z Vertex 1 {m}
  12.9315688143396, 0, 0,                 !- X,Y,Z Vertex 2 {m}
  6.46578440716979, 0, 0,                 !- X,Y,Z Vertex 3 {m}
  6.46578440716979, 0, 2.4384;            !- X,Y,Z Vertex 4 {m}

OS:Surface,
  {e0d563f4-e2f4-4bd7-aa70-510d30f9d957}, !- Handle
  Surface 16,                             !- Name
  Wall,                                   !- Surface Type
  ,                                       !- Construction Name
  {0d0cffba-c734-4cbf-a5ad-05e94d3811ac}, !- Space Name
  Surface,                                !- Outside Boundary Condition
  {9e2412b4-5716-4f14-a505-25ab9bee6c38}, !- Outside Boundary Condition Object
  NoSun,                                  !- Sun Exposure
  NoWind,                                 !- Wind Exposure
  ,                                       !- View Factor to Ground
  ,                                       !- Number of Vertices
  12.9315688143396, -12.9315688143396, 2.4384, !- X,Y,Z Vertex 1 {m}
  12.9315688143396, -12.9315688143396, 0, !- X,Y,Z Vertex 2 {m}
  12.9315688143396, 0, 0,                 !- X,Y,Z Vertex 3 {m}
  12.9315688143396, 0, 2.4384;            !- X,Y,Z Vertex 4 {m}

OS:Surface,
  {56697fed-b88d-4cb8-b281-60eba6d16410}, !- Handle
  Surface 17,                             !- Name
  Wall,                                   !- Surface Type
  ,                                       !- Construction Name
  {0d0cffba-c734-4cbf-a5ad-05e94d3811ac}, !- Space Name
  Outdoors,                               !- Outside Boundary Condition
  ,                                       !- Outside Boundary Condition Object
  SunExposed,                             !- Sun Exposure
  WindExposed,                            !- Wind Exposure
  ,                                       !- View Factor to Ground
  ,                                       !- Number of Vertices
  6.46578440716979, -12.9315688143396, 2.4384, !- X,Y,Z Vertex 1 {m}
  6.46578440716979, -12.9315688143396, 0, !- X,Y,Z Vertex 2 {m}
  12.9315688143396, -12.9315688143396, 0, !- X,Y,Z Vertex 3 {m}
  12.9315688143396, -12.9315688143396, 2.4384; !- X,Y,Z Vertex 4 {m}

OS:ThermalZone,
  {cdc29302-bc7a-4bc2-9721-13e8a619e05e}, !- Handle
  living zone|unit 3,                     !- Name
  ,                                       !- Multiplier
  ,                                       !- Ceiling Height {m}
  ,                                       !- Volume {m3}
  ,                                       !- Floor Area {m2}
  ,                                       !- Zone Inside Convection Algorithm
  ,                                       !- Zone Outside Convection Algorithm
  ,                                       !- Zone Conditioning Equipment List Name
  {95ffc2b5-ca87-4e57-b4c2-7159d312bcad}, !- Zone Air Inlet Port List
  {42a2ce24-c78c-4fff-8610-0ae37e9edef6}, !- Zone Air Exhaust Port List
  {4b9fc465-332e-4678-85b0-7d601b2fc9ce}, !- Zone Air Node Name
  {f4ca4250-f5ae-4d69-847f-4c85338bef6a}, !- Zone Return Air Port List
  ,                                       !- Primary Daylighting Control Name
  ,                                       !- Fraction of Zone Controlled by Primary Daylighting Control
  ,                                       !- Secondary Daylighting Control Name
  ,                                       !- Fraction of Zone Controlled by Secondary Daylighting Control
  ,                                       !- Illuminance Map Name
  ,                                       !- Group Rendering Name
  {7b4ea8f2-0189-4847-bec5-4ba15a67b1ad}, !- Thermostat Name
  No;                                     !- Use Ideal Air Loads

OS:Node,
  {b6c3ab91-9265-47af-a1cf-229953dc1352}, !- Handle
  Node 3,                                 !- Name
  {4b9fc465-332e-4678-85b0-7d601b2fc9ce}, !- Inlet Port
  ;                                       !- Outlet Port

OS:Connection,
  {4b9fc465-332e-4678-85b0-7d601b2fc9ce}, !- Handle
  {a787bf2f-2d62-497d-b4ab-a43b4022b4b4}, !- Name
  {cdc29302-bc7a-4bc2-9721-13e8a619e05e}, !- Source Object
  11,                                     !- Outlet Port
  {b6c3ab91-9265-47af-a1cf-229953dc1352}, !- Target Object
  2;                                      !- Inlet Port
