!- NOTE: Auto-generated from /test/osw_files/SFA_HVACSizing_Equip_Central_System_Fan_Coil_Autosize.osw

OS:Version,
  {31fc2e21-0fb9-47f2-8d81-7c598bff48b6}, !- Handle
  2.8.0;                                  !- Version Identifier

OS:SimulationControl,
  {2388ea18-48fd-4639-9020-57c63e65eb96}, !- Handle
  ,                                       !- Do Zone Sizing Calculation
  ,                                       !- Do System Sizing Calculation
  ,                                       !- Do Plant Sizing Calculation
  Yes;                                    !- Run Simulation for Sizing Periods

OS:Timestep,
  {57f14ef7-8b67-4ce1-9858-03d3cc8f4fd6}, !- Handle
  6;                                      !- Number of Timesteps per Hour

OS:ShadowCalculation,
  {fe99389f-b45d-4b72-8e85-1b3bba1b3ecc}, !- Handle
  20,                                     !- Calculation Frequency
  200;                                    !- Maximum Figures in Shadow Overlap Calculations

OS:SurfaceConvectionAlgorithm:Outside,
  {dda1332d-a66a-4605-9d6f-8ffa3b78f8b4}, !- Handle
  DOE-2;                                  !- Algorithm

OS:SurfaceConvectionAlgorithm:Inside,
  {adc75803-5836-4025-83b3-17db07b51176}, !- Handle
  TARP;                                   !- Algorithm

OS:ZoneCapacitanceMultiplier:ResearchSpecial,
  {273ac9e8-f5d8-400c-b3dd-cecc829fffde}, !- Handle
  ,                                       !- Temperature Capacity Multiplier
  15,                                     !- Humidity Capacity Multiplier
  ;                                       !- Carbon Dioxide Capacity Multiplier

OS:RunPeriod,
  {f6f15f42-ce41-417b-8e37-2e10b0bc2a40}, !- Handle
  Run Period 1,                           !- Name
  1,                                      !- Begin Month
  1,                                      !- Begin Day of Month
  12,                                     !- End Month
  31,                                     !- End Day of Month
  ,                                       !- Use Weather File Holidays and Special Days
  ,                                       !- Use Weather File Daylight Saving Period
  ,                                       !- Apply Weekend Holiday Rule
  ,                                       !- Use Weather File Rain Indicators
  ,                                       !- Use Weather File Snow Indicators
  ;                                       !- Number of Times Runperiod to be Repeated

OS:YearDescription,
  {26f8d69b-991e-4f50-9250-d45cf0d09d3d}, !- Handle
  2007,                                   !- Calendar Year
  ,                                       !- Day of Week for Start Day
  ;                                       !- Is Leap Year

OS:WeatherFile,
  {4d823e47-9173-41fd-b9ad-a9779d6f58c3}, !- Handle
  Denver Intl Ap,                         !- City
  CO,                                     !- State Province Region
  USA,                                    !- Country
  TMY3,                                   !- Data Source
  725650,                                 !- WMO Number
  39.83,                                  !- Latitude {deg}
  -104.65,                                !- Longitude {deg}
  -7,                                     !- Time Zone {hr}
  1650,                                   !- Elevation {m}
  file:../weather/USA_CO_Denver.Intl.AP.725650_TMY3.epw, !- Url
  E23378AA;                               !- Checksum

OS:AdditionalProperties,
  {5375a04a-0d4d-421b-b708-f11ac628c921}, !- Handle
  {4d823e47-9173-41fd-b9ad-a9779d6f58c3}, !- Object Name
  EPWHeaderCity,                          !- Feature Name 1
  String,                                 !- Feature Data Type 1
  Denver Intl Ap,                         !- Feature Value 1
  EPWHeaderState,                         !- Feature Name 2
  String,                                 !- Feature Data Type 2
  CO,                                     !- Feature Value 2
  EPWHeaderCountry,                       !- Feature Name 3
  String,                                 !- Feature Data Type 3
  USA,                                    !- Feature Value 3
  EPWHeaderDataSource,                    !- Feature Name 4
  String,                                 !- Feature Data Type 4
  TMY3,                                   !- Feature Value 4
  EPWHeaderStation,                       !- Feature Name 5
  String,                                 !- Feature Data Type 5
  725650,                                 !- Feature Value 5
  EPWHeaderLatitude,                      !- Feature Name 6
  Double,                                 !- Feature Data Type 6
  39.829999999999998,                     !- Feature Value 6
  EPWHeaderLongitude,                     !- Feature Name 7
  Double,                                 !- Feature Data Type 7
  -104.65000000000001,                    !- Feature Value 7
  EPWHeaderTimezone,                      !- Feature Name 8
  Double,                                 !- Feature Data Type 8
  -7,                                     !- Feature Value 8
  EPWHeaderAltitude,                      !- Feature Name 9
  Double,                                 !- Feature Data Type 9
  5413.3858267716532,                     !- Feature Value 9
  EPWHeaderLocalPressure,                 !- Feature Name 10
  Double,                                 !- Feature Data Type 10
  0.81937567683596546,                    !- Feature Value 10
  EPWHeaderRecordsPerHour,                !- Feature Name 11
  Double,                                 !- Feature Data Type 11
  0,                                      !- Feature Value 11
  EPWDataAnnualAvgDrybulb,                !- Feature Name 12
  Double,                                 !- Feature Data Type 12
  51.575616438356228,                     !- Feature Value 12
  EPWDataAnnualMinDrybulb,                !- Feature Name 13
  Double,                                 !- Feature Data Type 13
  -2.9200000000000017,                    !- Feature Value 13
  EPWDataAnnualMaxDrybulb,                !- Feature Name 14
  Double,                                 !- Feature Data Type 14
  104,                                    !- Feature Value 14
  EPWDataCDD50F,                          !- Feature Name 15
  Double,                                 !- Feature Data Type 15
  3072.2925000000005,                     !- Feature Value 15
  EPWDataCDD65F,                          !- Feature Name 16
  Double,                                 !- Feature Data Type 16
  883.62000000000035,                     !- Feature Value 16
  EPWDataHDD50F,                          !- Feature Name 17
  Double,                                 !- Feature Data Type 17
  2497.1925000000001,                     !- Feature Value 17
  EPWDataHDD65F,                          !- Feature Name 18
  Double,                                 !- Feature Data Type 18
  5783.5200000000013,                     !- Feature Value 18
  EPWDataAnnualAvgWindspeed,              !- Feature Name 19
  Double,                                 !- Feature Data Type 19
  3.9165296803649667,                     !- Feature Value 19
  EPWDataMonthlyAvgDrybulbs,              !- Feature Name 20
  String,                                 !- Feature Data Type 20
  33.4191935483871&#4431.90142857142857&#4443.02620967741937&#4442.48624999999999&#4459.877741935483854&#4473.57574999999997&#4472.07975806451608&#4472.70008064516134&#4466.49200000000006&#4450.079112903225806&#4437.218250000000005&#4434.582177419354835, !- Feature Value 20
  EPWDataGroundMonthlyTemps,              !- Feature Name 21
  String,                                 !- Feature Data Type 21
  44.08306285945173&#4440.89570904991865&#4440.64045432632048&#4442.153016571250646&#4448.225111118704206&#4454.268919273837525&#4459.508577937551024&#4462.82777283423508&#4463.10975667174995&#4460.41014950381947&#4455.304105212311526&#4449.445696474514364, !- Feature Value 21
  EPWDataWSF,                             !- Feature Name 22
  Double,                                 !- Feature Data Type 22
  0.58999999999999997,                    !- Feature Value 22
  EPWDataMonthlyAvgDailyHighDrybulbs,     !- Feature Name 23
  String,                                 !- Feature Data Type 23
  47.41032258064516&#4446.58642857142857&#4455.15032258064517&#4453.708&#4472.80193548387098&#4488.67600000000002&#4486.1858064516129&#4485.87225806451613&#4482.082&#4463.18064516129033&#4448.73400000000001&#4448.87935483870968, !- Feature Value 23
  EPWDataMonthlyAvgDailyLowDrybulbs,      !- Feature Name 24
  String,                                 !- Feature Data Type 24
  19.347741935483874&#4419.856428571428573&#4430.316129032258065&#4431.112&#4447.41612903225806&#4457.901999999999994&#4459.063870967741934&#4460.956774193548384&#4452.352000000000004&#4438.41612903225806&#4427.002000000000002&#4423.02903225806451, !- Feature Value 24
  EPWDesignHeatingDrybulb,                !- Feature Name 25
  Double,                                 !- Feature Data Type 25
  12.02,                                  !- Feature Value 25
  EPWDesignHeatingWindspeed,              !- Feature Name 26
  Double,                                 !- Feature Data Type 26
  2.8062500000000004,                     !- Feature Value 26
  EPWDesignCoolingDrybulb,                !- Feature Name 27
  Double,                                 !- Feature Data Type 27
  91.939999999999998,                     !- Feature Value 27
  EPWDesignCoolingWetbulb,                !- Feature Name 28
  Double,                                 !- Feature Data Type 28
  59.95131430195849,                      !- Feature Value 28
  EPWDesignCoolingHumidityRatio,          !- Feature Name 29
  Double,                                 !- Feature Data Type 29
  0.0059161086834698092,                  !- Feature Value 29
  EPWDesignCoolingWindspeed,              !- Feature Name 30
  Double,                                 !- Feature Data Type 30
  3.7999999999999989,                     !- Feature Value 30
  EPWDesignDailyTemperatureRange,         !- Feature Name 31
  Double,                                 !- Feature Data Type 31
  24.915483870967748,                     !- Feature Value 31
  EPWDesignDehumidDrybulb,                !- Feature Name 32
  Double,                                 !- Feature Data Type 32
  67.996785714285721,                     !- Feature Value 32
  EPWDesignDehumidHumidityRatio,          !- Feature Name 33
  Double,                                 !- Feature Data Type 33
  0.012133744170488724,                   !- Feature Value 33
  EPWDesignCoolingDirectNormal,           !- Feature Name 34
  Double,                                 !- Feature Data Type 34
  985,                                    !- Feature Value 34
  EPWDesignCoolingDiffuseHorizontal,      !- Feature Name 35
  Double,                                 !- Feature Data Type 35
  84;                                     !- Feature Value 35

OS:Site,
  {1b1d068f-8565-43d7-9ebe-d271a3bd6827}, !- Handle
  Denver Intl Ap_CO_USA,                  !- Name
  39.83,                                  !- Latitude {deg}
  -104.65,                                !- Longitude {deg}
  -7,                                     !- Time Zone {hr}
  1650,                                   !- Elevation {m}
  Suburbs;                                !- Terrain

OS:ClimateZones,
  {67971430-ad5c-4c2b-9ee5-e1ee9b2e5b6c}, !- Handle
  ,                                       !- Active Institution
  ,                                       !- Active Year
  ,                                       !- Climate Zone Institution Name 1
  ,                                       !- Climate Zone Document Name 1
  ,                                       !- Climate Zone Document Year 1
  ,                                       !- Climate Zone Value 1
  Building America,                       !- Climate Zone Institution Name 2
  ,                                       !- Climate Zone Document Name 2
  0,                                      !- Climate Zone Document Year 2
  Cold;                                   !- Climate Zone Value 2

OS:Site:WaterMainsTemperature,
  {938daf2d-aa46-4e6b-9610-e8a7f27adb00}, !- Handle
  Correlation,                            !- Calculation Method
  ,                                       !- Temperature Schedule Name
  10.8753424657535,                       !- Annual Average Outdoor Air Temperature {C}
  23.1524007936508;                       !- Maximum Difference In Monthly Average Outdoor Air Temperatures {deltaC}

OS:RunPeriodControl:DaylightSavingTime,
  {273db076-50f0-434b-a543-d4328a844e0b}, !- Handle
  4/7,                                    !- Start Date
  10/26;                                  !- End Date

OS:Site:GroundTemperature:Deep,
  {3ebad7e7-8d5a-44cf-a45a-be017808834c}, !- Handle
  10.8753424657535,                       !- January Deep Ground Temperature {C}
  10.8753424657535,                       !- February Deep Ground Temperature {C}
  10.8753424657535,                       !- March Deep Ground Temperature {C}
  10.8753424657535,                       !- April Deep Ground Temperature {C}
  10.8753424657535,                       !- May Deep Ground Temperature {C}
  10.8753424657535,                       !- June Deep Ground Temperature {C}
  10.8753424657535,                       !- July Deep Ground Temperature {C}
  10.8753424657535,                       !- August Deep Ground Temperature {C}
  10.8753424657535,                       !- September Deep Ground Temperature {C}
  10.8753424657535,                       !- October Deep Ground Temperature {C}
  10.8753424657535,                       !- November Deep Ground Temperature {C}
  10.8753424657535;                       !- December Deep Ground Temperature {C}

OS:ThermalZone,
  {e8a56b82-d6f8-4783-b58b-5c86d4e7ee56}, !- Handle
  living zone,                            !- Name
  ,                                       !- Multiplier
  ,                                       !- Ceiling Height {m}
  ,                                       !- Volume {m3}
  ,                                       !- Floor Area {m2}
  ,                                       !- Zone Inside Convection Algorithm
  ,                                       !- Zone Outside Convection Algorithm
  ,                                       !- Zone Conditioning Equipment List Name
  {dbf47b60-c62f-411d-97a0-094c1a38ce16}, !- Zone Air Inlet Port List
  {d1ba7c68-65ad-481c-b9f9-b4c16f486bf8}, !- Zone Air Exhaust Port List
  {d67dcd01-14af-4c91-b146-2ac3b4caa5fa}, !- Zone Air Node Name
  {f064a4f2-9443-46ab-a942-964a0de7baee}, !- Zone Return Air Port List
  ,                                       !- Primary Daylighting Control Name
  ,                                       !- Fraction of Zone Controlled by Primary Daylighting Control
  ,                                       !- Secondary Daylighting Control Name
  ,                                       !- Fraction of Zone Controlled by Secondary Daylighting Control
  ,                                       !- Illuminance Map Name
  ,                                       !- Group Rendering Name
  {5df79580-08f7-488b-91c1-eac07653ec31}, !- Thermostat Name
  No;                                     !- Use Ideal Air Loads

OS:Node,
  {a70f302d-3117-4629-9e38-4ca742db1c65}, !- Handle
  Node 1,                                 !- Name
  {d67dcd01-14af-4c91-b146-2ac3b4caa5fa}, !- Inlet Port
  ;                                       !- Outlet Port

OS:Connection,
  {d67dcd01-14af-4c91-b146-2ac3b4caa5fa}, !- Handle
  {97d11bdc-6722-4ab4-8434-5c1e617bf18e}, !- Name
  {e8a56b82-d6f8-4783-b58b-5c86d4e7ee56}, !- Source Object
  11,                                     !- Outlet Port
  {a70f302d-3117-4629-9e38-4ca742db1c65}, !- Target Object
  2;                                      !- Inlet Port

OS:PortList,
  {dbf47b60-c62f-411d-97a0-094c1a38ce16}, !- Handle
  {f1d1729b-0c1f-4604-8942-f6d462632076}, !- Name
  {e8a56b82-d6f8-4783-b58b-5c86d4e7ee56}, !- HVAC Component
  {4130d409-2275-4702-9c30-cba608cc088b}; !- Port 1

OS:PortList,
  {d1ba7c68-65ad-481c-b9f9-b4c16f486bf8}, !- Handle
  {f5d7e730-e8be-446b-9e64-d4f9d2ff8c6d}, !- Name
  {e8a56b82-d6f8-4783-b58b-5c86d4e7ee56}, !- HVAC Component
  {722b7b25-c0ee-4233-88f0-305ccc586561}; !- Port 1

OS:PortList,
  {f064a4f2-9443-46ab-a942-964a0de7baee}, !- Handle
  {e626c71f-3faf-4500-a46c-7206be9b057a}, !- Name
  {e8a56b82-d6f8-4783-b58b-5c86d4e7ee56}; !- HVAC Component

OS:Sizing:Zone,
  {4c5be031-0687-4486-97ee-69117a03bde8}, !- Handle
  {e8a56b82-d6f8-4783-b58b-5c86d4e7ee56}, !- Zone or ZoneList Name
  SupplyAirTemperature,                   !- Zone Cooling Design Supply Air Temperature Input Method
  12.7777777777778,                       !- Zone Cooling Design Supply Air Temperature {C}
  11.11,                                  !- Zone Cooling Design Supply Air Temperature Difference {deltaC}
  SupplyAirTemperature,                   !- Zone Heating Design Supply Air Temperature Input Method
  40.0000000000001,                       !- Zone Heating Design Supply Air Temperature {C}
  11.11,                                  !- Zone Heating Design Supply Air Temperature Difference {deltaC}
  0.0085,                                 !- Zone Cooling Design Supply Air Humidity Ratio {kg-H2O/kg-air}
  0.008,                                  !- Zone Heating Design Supply Air Humidity Ratio {kg-H2O/kg-air}
  ,                                       !- Zone Heating Sizing Factor
  ,                                       !- Zone Cooling Sizing Factor
  DesignDay,                              !- Cooling Design Air Flow Method
  ,                                       !- Cooling Design Air Flow Rate {m3/s}
  ,                                       !- Cooling Minimum Air Flow per Zone Floor Area {m3/s-m2}
  ,                                       !- Cooling Minimum Air Flow {m3/s}
  ,                                       !- Cooling Minimum Air Flow Fraction
  DesignDay,                              !- Heating Design Air Flow Method
  ,                                       !- Heating Design Air Flow Rate {m3/s}
  ,                                       !- Heating Maximum Air Flow per Zone Floor Area {m3/s-m2}
  ,                                       !- Heating Maximum Air Flow {m3/s}
  ,                                       !- Heating Maximum Air Flow Fraction
  ,                                       !- Design Zone Air Distribution Effectiveness in Cooling Mode
  ,                                       !- Design Zone Air Distribution Effectiveness in Heating Mode
  No,                                     !- Account for Dedicated Outdoor Air System
  NeutralSupplyAir,                       !- Dedicated Outdoor Air System Control Strategy
  autosize,                               !- Dedicated Outdoor Air Low Setpoint Temperature for Design {C}
  autosize;                               !- Dedicated Outdoor Air High Setpoint Temperature for Design {C}

OS:ZoneHVAC:EquipmentList,
  {771d1b13-19d1-4f9b-a85d-832d4fc277cd}, !- Handle
  Zone HVAC Equipment List 1,             !- Name
  {e8a56b82-d6f8-4783-b58b-5c86d4e7ee56}, !- Thermal Zone
  ,                                       !- Load Distribution Scheme
  {5293dc9e-6946-4773-8bde-fd101cc17e9d}, !- Zone Equipment 1
  1,                                      !- Zone Equipment Cooling Sequence 1
  1,                                      !- Zone Equipment Heating or No-Load Sequence 1
  ,                                       !- Zone Equipment Sequential Cooling Fraction 1
  ;                                       !- Zone Equipment Sequential Heating Fraction 1

OS:Space,
  {a47c60b8-a570-4594-8915-21b3f882f842}, !- Handle
  living space,                           !- Name
  {ca9cdd2f-e4e2-4ba4-8987-ea4f2ee41b4a}, !- Space Type Name
  ,                                       !- Default Construction Set Name
  ,                                       !- Default Schedule Set Name
  ,                                       !- Direction of Relative North {deg}
  ,                                       !- X Origin {m}
  ,                                       !- Y Origin {m}
  ,                                       !- Z Origin {m}
  ,                                       !- Building Story Name
  {e8a56b82-d6f8-4783-b58b-5c86d4e7ee56}, !- Thermal Zone Name
  ,                                       !- Part of Total Floor Area
  ,                                       !- Design Specification Outdoor Air Object Name
  {29620625-e8fb-4e31-a3c3-9070d59ecb5d}; !- Building Unit Name

OS:Surface,
  {163da8bd-24dd-4d8d-98df-bb257b90a4fa}, !- Handle
  Surface 1,                              !- Name
  Floor,                                  !- Surface Type
  {c3937076-493e-4313-9fdb-4a2e6bb5f459}, !- Construction Name
  {a47c60b8-a570-4594-8915-21b3f882f842}, !- Space Name
  Surface,                                !- Outside Boundary Condition
  {54a5a7f2-8706-4cfb-a248-9536bb93f028}, !- Outside Boundary Condition Object
  NoSun,                                  !- Sun Exposure
  NoWind,                                 !- Wind Exposure
  ,                                       !- View Factor to Ground
  ,                                       !- Number of Vertices
  0, -9.144, 0,                           !- X,Y,Z Vertex 1 {m}
  0, 0, 0,                                !- X,Y,Z Vertex 2 {m}
  4.572, 0, 0,                            !- X,Y,Z Vertex 3 {m}
  4.572, -9.144, 0;                       !- X,Y,Z Vertex 4 {m}

OS:Surface,
  {e02c1ced-584c-4491-bf66-f414395ebaa5}, !- Handle
  Surface 2,                              !- Name
  Wall,                                   !- Surface Type
  {9839e115-7274-40b1-ad7c-8e41ed390bff}, !- Construction Name
  {a47c60b8-a570-4594-8915-21b3f882f842}, !- Space Name
  Outdoors,                               !- Outside Boundary Condition
  ,                                       !- Outside Boundary Condition Object
  SunExposed,                             !- Sun Exposure
  WindExposed,                            !- Wind Exposure
  ,                                       !- View Factor to Ground
  ,                                       !- Number of Vertices
  0, 0, 2.4384,                           !- X,Y,Z Vertex 1 {m}
  0, 0, 0,                                !- X,Y,Z Vertex 2 {m}
  0, -9.144, 0,                           !- X,Y,Z Vertex 3 {m}
  0, -9.144, 2.4384;                      !- X,Y,Z Vertex 4 {m}

OS:Surface,
  {22ddf457-0b00-4f45-bd51-513e8f981df9}, !- Handle
  Surface 3,                              !- Name
  Wall,                                   !- Surface Type
  {9839e115-7274-40b1-ad7c-8e41ed390bff}, !- Construction Name
  {a47c60b8-a570-4594-8915-21b3f882f842}, !- Space Name
  Outdoors,                               !- Outside Boundary Condition
  ,                                       !- Outside Boundary Condition Object
  SunExposed,                             !- Sun Exposure
  WindExposed,                            !- Wind Exposure
  ,                                       !- View Factor to Ground
  ,                                       !- Number of Vertices
  4.572, 0, 2.4384,                       !- X,Y,Z Vertex 1 {m}
  4.572, 0, 0,                            !- X,Y,Z Vertex 2 {m}
  0, 0, 0,                                !- X,Y,Z Vertex 3 {m}
  0, 0, 2.4384;                           !- X,Y,Z Vertex 4 {m}

OS:Surface,
  {1713deb6-e124-4608-924f-cbba5db82096}, !- Handle
  Surface 4,                              !- Name
  Wall,                                   !- Surface Type
  {6972d7ac-a0f4-4c14-b49d-2a4cd54e787b}, !- Construction Name
  {a47c60b8-a570-4594-8915-21b3f882f842}, !- Space Name
  Surface,                                !- Outside Boundary Condition
  {c2341c7f-1b8c-4f9d-9452-faada846ffce}, !- Outside Boundary Condition Object
  NoSun,                                  !- Sun Exposure
  NoWind,                                 !- Wind Exposure
  ,                                       !- View Factor to Ground
  ,                                       !- Number of Vertices
  4.572, -9.144, 2.4384,                  !- X,Y,Z Vertex 1 {m}
  4.572, -9.144, 0,                       !- X,Y,Z Vertex 2 {m}
  4.572, 0, 0,                            !- X,Y,Z Vertex 3 {m}
  4.572, 0, 2.4384;                       !- X,Y,Z Vertex 4 {m}

OS:Surface,
  {c739b6b3-a398-48e1-8505-f325d5bfb89b}, !- Handle
  Surface 5,                              !- Name
  Wall,                                   !- Surface Type
  {9839e115-7274-40b1-ad7c-8e41ed390bff}, !- Construction Name
  {a47c60b8-a570-4594-8915-21b3f882f842}, !- Space Name
  Outdoors,                               !- Outside Boundary Condition
  ,                                       !- Outside Boundary Condition Object
  SunExposed,                             !- Sun Exposure
  WindExposed,                            !- Wind Exposure
  ,                                       !- View Factor to Ground
  ,                                       !- Number of Vertices
  4.572, -9.144, 0,                       !- X,Y,Z Vertex 1 {m}
  4.572, -9.144, 2.4384,                  !- X,Y,Z Vertex 2 {m}
  1.04865714285714, -9.144, 2.4384,       !- X,Y,Z Vertex 3 {m}
  1.04865714285714, -9.144, 0;            !- X,Y,Z Vertex 4 {m}

OS:Surface,
  {5d328545-4dd5-4b29-9fe7-85c543e69e61}, !- Handle
  Surface 6,                              !- Name
  RoofCeiling,                            !- Surface Type
  {67d3c6b3-3838-48ca-aa72-e669b8707cbc}, !- Construction Name
  {a47c60b8-a570-4594-8915-21b3f882f842}, !- Space Name
  Surface,                                !- Outside Boundary Condition
  {7f4c8ac6-7a85-4017-b68e-0663972ad6b0}, !- Outside Boundary Condition Object
  NoSun,                                  !- Sun Exposure
  NoWind,                                 !- Wind Exposure
  ,                                       !- View Factor to Ground
  ,                                       !- Number of Vertices
  4.572, -9.144, 2.4384,                  !- X,Y,Z Vertex 1 {m}
  4.572, 0, 2.4384,                       !- X,Y,Z Vertex 2 {m}
  0, 0, 2.4384,                           !- X,Y,Z Vertex 3 {m}
  0, -9.144, 2.4384;                      !- X,Y,Z Vertex 4 {m}

OS:SpaceType,
  {ca9cdd2f-e4e2-4ba4-8987-ea4f2ee41b4a}, !- Handle
  Space Type 1,                           !- Name
  ,                                       !- Default Construction Set Name
  ,                                       !- Default Schedule Set Name
  ,                                       !- Group Rendering Name
  ,                                       !- Design Specification Outdoor Air Object Name
  ,                                       !- Standards Template
  ,                                       !- Standards Building Type
  living;                                 !- Standards Space Type

OS:ThermalZone,
  {5390a132-8127-48a5-b385-d7b2c565c41e}, !- Handle
  living zone|unit 2,                     !- Name
  ,                                       !- Multiplier
  ,                                       !- Ceiling Height {m}
  ,                                       !- Volume {m3}
  ,                                       !- Floor Area {m2}
  ,                                       !- Zone Inside Convection Algorithm
  ,                                       !- Zone Outside Convection Algorithm
  ,                                       !- Zone Conditioning Equipment List Name
  {e18db40d-8726-4faf-a55b-ab5e69b97859}, !- Zone Air Inlet Port List
  {43d5ebf4-ce69-4058-b264-dc0c827ea112}, !- Zone Air Exhaust Port List
  {e34ce2d1-10d0-4a81-a5b1-9ad69aef63c7}, !- Zone Air Node Name
  {061e32f7-1b60-44d5-9383-dbe60be79d7d}, !- Zone Return Air Port List
  ,                                       !- Primary Daylighting Control Name
  ,                                       !- Fraction of Zone Controlled by Primary Daylighting Control
  ,                                       !- Secondary Daylighting Control Name
  ,                                       !- Fraction of Zone Controlled by Secondary Daylighting Control
  ,                                       !- Illuminance Map Name
  ,                                       !- Group Rendering Name
  {f85e0bb6-c8ec-4658-8abf-c4752426ace2}, !- Thermostat Name
  No;                                     !- Use Ideal Air Loads

OS:Node,
  {981287cd-df8c-4978-a4c7-5534e83b84de}, !- Handle
  Node 2,                                 !- Name
  {e34ce2d1-10d0-4a81-a5b1-9ad69aef63c7}, !- Inlet Port
  ;                                       !- Outlet Port

OS:Connection,
  {e34ce2d1-10d0-4a81-a5b1-9ad69aef63c7}, !- Handle
  {06c10f7c-3540-4891-b480-82874b0a9ae7}, !- Name
  {5390a132-8127-48a5-b385-d7b2c565c41e}, !- Source Object
  11,                                     !- Outlet Port
  {981287cd-df8c-4978-a4c7-5534e83b84de}, !- Target Object
  2;                                      !- Inlet Port

OS:PortList,
  {e18db40d-8726-4faf-a55b-ab5e69b97859}, !- Handle
  {edad59c2-932d-4768-a6fe-15d9d4279dff}, !- Name
  {5390a132-8127-48a5-b385-d7b2c565c41e}, !- HVAC Component
  {6052f470-c6c4-4b1a-ac7a-6cff98b89a60}; !- Port 1

OS:PortList,
  {43d5ebf4-ce69-4058-b264-dc0c827ea112}, !- Handle
  {8b2b53da-7a37-4c49-b908-2bdb5ac270eb}, !- Name
  {5390a132-8127-48a5-b385-d7b2c565c41e}, !- HVAC Component
  {38fefb7c-fea4-4eb5-bbd5-175c9e7aa4d4}; !- Port 1

OS:PortList,
  {061e32f7-1b60-44d5-9383-dbe60be79d7d}, !- Handle
  {958f243d-88ae-4449-af75-4fe19ec5a4f2}, !- Name
  {5390a132-8127-48a5-b385-d7b2c565c41e}; !- HVAC Component

OS:Sizing:Zone,
  {d52f28d7-1084-4b97-99db-de223d3f3f9b}, !- Handle
  {5390a132-8127-48a5-b385-d7b2c565c41e}, !- Zone or ZoneList Name
  SupplyAirTemperature,                   !- Zone Cooling Design Supply Air Temperature Input Method
  12.7777777777778,                       !- Zone Cooling Design Supply Air Temperature {C}