!- NOTE: Auto-generated from /test/osw_files/SFA_4units_1story_SL_UA_3Beds_2Baths_Denver_Central_System_Boiler_Baseboards.osw

OS:Version,
  {7025401b-b81d-4692-addb-1b8c1d73f4e7}, !- Handle
  2.8.1;                                  !- Version Identifier

OS:SimulationControl,
  {493013e3-bca4-462a-843f-b1c6adf49822}, !- Handle
  ,                                       !- Do Zone Sizing Calculation
  ,                                       !- Do System Sizing Calculation
  ,                                       !- Do Plant Sizing Calculation
  Yes;                                    !- Run Simulation for Sizing Periods

OS:Timestep,
  {e0f9418d-6057-42a9-9cab-4af4e8a05aa5}, !- Handle
  6;                                      !- Number of Timesteps per Hour

OS:ShadowCalculation,
  {d085c866-0766-4948-83b7-5b1dd8b023fa}, !- Handle
  20,                                     !- Calculation Frequency
  200;                                    !- Maximum Figures in Shadow Overlap Calculations

OS:SurfaceConvectionAlgorithm:Outside,
  {8abac663-5a76-49b0-9b75-9a57f81b9215}, !- Handle
  DOE-2;                                  !- Algorithm

OS:SurfaceConvectionAlgorithm:Inside,
  {69fc442a-806a-4ee4-9e01-ebe56f82cf26}, !- Handle
  TARP;                                   !- Algorithm

OS:ZoneCapacitanceMultiplier:ResearchSpecial,
  {56892875-e2e8-4132-92ad-537d0ed24fe5}, !- Handle
  ,                                       !- Temperature Capacity Multiplier
  15,                                     !- Humidity Capacity Multiplier
  ;                                       !- Carbon Dioxide Capacity Multiplier

OS:RunPeriod,
  {a616b8d0-c75b-4403-8b8f-5facccf3f78b}, !- Handle
  Run Period 1,                           !- Name
  1,                                      !- Begin Month
  1,                                      !- Begin Day of Month
  12,                                     !- End Month
  31,                                     !- End Day of Month
  ,                                       !- Use Weather File Holidays and Special Days
  ,                                       !- Use Weather File Daylight Saving Period
  ,                                       !- Apply Weekend Holiday Rule
  ,                                       !- Use Weather File Rain Indicators
  ,                                       !- Use Weather File Snow Indicators
  ;                                       !- Number of Times Runperiod to be Repeated

OS:ThermalZone,
  {d3a3b487-3cd8-4aac-aaa1-9cf97dd6e7a4}, !- Handle
  living zone,                            !- Name
  ,                                       !- Multiplier
  ,                                       !- Ceiling Height {m}
  ,                                       !- Volume {m3}
  ,                                       !- Floor Area {m2}
  ,                                       !- Zone Inside Convection Algorithm
  ,                                       !- Zone Outside Convection Algorithm
  ,                                       !- Zone Conditioning Equipment List Name
  {f900674f-604b-48aa-8610-81308742bad3}, !- Zone Air Inlet Port List
  {98d66acf-a424-44db-a847-a3e4ac50a6b2}, !- Zone Air Exhaust Port List
  {f4b2ecfd-d050-4d4d-a9e7-7f28f8d82367}, !- Zone Air Node Name
  {e7eb584e-d9a2-4964-ba06-b10c30dabfbf}, !- Zone Return Air Port List
  ,                                       !- Primary Daylighting Control Name
  ,                                       !- Fraction of Zone Controlled by Primary Daylighting Control
  ,                                       !- Secondary Daylighting Control Name
  ,                                       !- Fraction of Zone Controlled by Secondary Daylighting Control
  ,                                       !- Illuminance Map Name
  ,                                       !- Group Rendering Name
  {63c8579e-0899-43b9-82ca-1e5b6ed11739}, !- Thermostat Name
  No;                                     !- Use Ideal Air Loads

OS:Node,
  {103d8930-e6fe-4ec5-824a-ad84e584f263}, !- Handle
  Node 1,                                 !- Name
  {f4b2ecfd-d050-4d4d-a9e7-7f28f8d82367}, !- Inlet Port
  ;                                       !- Outlet Port

OS:Connection,
  {f4b2ecfd-d050-4d4d-a9e7-7f28f8d82367}, !- Handle
  {7f87f63a-c80a-4be9-8242-906bc9526b5d}, !- Name
  {d3a3b487-3cd8-4aac-aaa1-9cf97dd6e7a4}, !- Source Object
  11,                                     !- Outlet Port
  {103d8930-e6fe-4ec5-824a-ad84e584f263}, !- Target Object
  2;                                      !- Inlet Port

OS:PortList,
  {f900674f-604b-48aa-8610-81308742bad3}, !- Handle
  {6ff8b1d1-4a82-4f31-9a72-71a2edded33d}, !- Name
  {d3a3b487-3cd8-4aac-aaa1-9cf97dd6e7a4}; !- HVAC Component

OS:PortList,
  {98d66acf-a424-44db-a847-a3e4ac50a6b2}, !- Handle
  {d7843cb9-12d6-4c67-b1ba-a2588394d7c6}, !- Name
  {d3a3b487-3cd8-4aac-aaa1-9cf97dd6e7a4}; !- HVAC Component

OS:PortList,
  {e7eb584e-d9a2-4964-ba06-b10c30dabfbf}, !- Handle
  {195d179b-0c87-4fb0-ac26-94ab24381b0c}, !- Name
  {d3a3b487-3cd8-4aac-aaa1-9cf97dd6e7a4}; !- HVAC Component

OS:Sizing:Zone,
  {890c0769-b426-4fcf-9cbb-bf78b92d272b}, !- Handle
  {d3a3b487-3cd8-4aac-aaa1-9cf97dd6e7a4}, !- Zone or ZoneList Name
  SupplyAirTemperature,                   !- Zone Cooling Design Supply Air Temperature Input Method
  14,                                     !- Zone Cooling Design Supply Air Temperature {C}
  11.11,                                  !- Zone Cooling Design Supply Air Temperature Difference {deltaC}
  SupplyAirTemperature,                   !- Zone Heating Design Supply Air Temperature Input Method
  40,                                     !- Zone Heating Design Supply Air Temperature {C}
  11.11,                                  !- Zone Heating Design Supply Air Temperature Difference {deltaC}
  0.0085,                                 !- Zone Cooling Design Supply Air Humidity Ratio {kg-H2O/kg-air}
  0.008,                                  !- Zone Heating Design Supply Air Humidity Ratio {kg-H2O/kg-air}
  ,                                       !- Zone Heating Sizing Factor
  ,                                       !- Zone Cooling Sizing Factor
  DesignDay,                              !- Cooling Design Air Flow Method
  ,                                       !- Cooling Design Air Flow Rate {m3/s}
  ,                                       !- Cooling Minimum Air Flow per Zone Floor Area {m3/s-m2}
  ,                                       !- Cooling Minimum Air Flow {m3/s}
  ,                                       !- Cooling Minimum Air Flow Fraction
  DesignDay,                              !- Heating Design Air Flow Method
  ,                                       !- Heating Design Air Flow Rate {m3/s}
  ,                                       !- Heating Maximum Air Flow per Zone Floor Area {m3/s-m2}
  ,                                       !- Heating Maximum Air Flow {m3/s}
  ,                                       !- Heating Maximum Air Flow Fraction
  ,                                       !- Design Zone Air Distribution Effectiveness in Cooling Mode
  ,                                       !- Design Zone Air Distribution Effectiveness in Heating Mode
  No,                                     !- Account for Dedicated Outdoor Air System
  NeutralSupplyAir,                       !- Dedicated Outdoor Air System Control Strategy
  autosize,                               !- Dedicated Outdoor Air Low Setpoint Temperature for Design {C}
  autosize;                               !- Dedicated Outdoor Air High Setpoint Temperature for Design {C}

OS:ZoneHVAC:EquipmentList,
  {0af9abdf-a779-45c3-acad-168f46448710}, !- Handle
  Zone HVAC Equipment List 1,             !- Name
  {d3a3b487-3cd8-4aac-aaa1-9cf97dd6e7a4}, !- Thermal Zone
  ,                                       !- Load Distribution Scheme
  {3e64d0d2-f137-471b-a8db-5c8cc5b67b65}, !- Zone Equipment 1
  1,                                      !- Zone Equipment Cooling Sequence 1
  1,                                      !- Zone Equipment Heating or No-Load Sequence 1
  ,                                       !- Zone Equipment Sequential Cooling Fraction 1
  ;                                       !- Zone Equipment Sequential Heating Fraction 1

OS:Space,
  {6cd55b58-734d-4536-9aaa-536e056a4ebf}, !- Handle
  living space,                           !- Name
  {7ea2bf57-7fd3-4fb5-b942-adbfa873a9cf}, !- Space Type Name
  ,                                       !- Default Construction Set Name
  ,                                       !- Default Schedule Set Name
  ,                                       !- Direction of Relative North {deg}
  ,                                       !- X Origin {m}
  ,                                       !- Y Origin {m}
  ,                                       !- Z Origin {m}
  ,                                       !- Building Story Name
  {d3a3b487-3cd8-4aac-aaa1-9cf97dd6e7a4}, !- Thermal Zone Name
  ,                                       !- Part of Total Floor Area
  ,                                       !- Design Specification Outdoor Air Object Name
  {081331f2-e9db-4c5b-8d27-7c8e6dd45914}; !- Building Unit Name

OS:Surface,
  {e7f19e54-0cd7-4058-9627-5f81f0d62d67}, !- Handle
  Surface 1,                              !- Name
  Floor,                                  !- Surface Type
  ,                                       !- Construction Name
  {6cd55b58-734d-4536-9aaa-536e056a4ebf}, !- Space Name
  Foundation,                             !- Outside Boundary Condition
  ,                                       !- Outside Boundary Condition Object
  NoSun,                                  !- Sun Exposure
  NoWind,                                 !- Wind Exposure
  ,                                       !- View Factor to Ground
  ,                                       !- Number of Vertices
  0, -12.9315688143396, 0,                !- X,Y,Z Vertex 1 {m}
  0, 0, 0,                                !- X,Y,Z Vertex 2 {m}
  6.46578440716979, 0, 0,                 !- X,Y,Z Vertex 3 {m}
  6.46578440716979, -12.9315688143396, 0; !- X,Y,Z Vertex 4 {m}

OS:Surface,
  {a91e87d4-b8c6-44e3-9a6b-2a39313e7bd4}, !- Handle
  Surface 2,                              !- Name
  Wall,                                   !- Surface Type
  ,                                       !- Construction Name
  {6cd55b58-734d-4536-9aaa-536e056a4ebf}, !- Space Name
  Outdoors,                               !- Outside Boundary Condition
  ,                                       !- Outside Boundary Condition Object
  SunExposed,                             !- Sun Exposure
  WindExposed,                            !- Wind Exposure
  ,                                       !- View Factor to Ground
  ,                                       !- Number of Vertices
  0, 0, 2.4384,                           !- X,Y,Z Vertex 1 {m}
  0, 0, 0,                                !- X,Y,Z Vertex 2 {m}
  0, -12.9315688143396, 0,                !- X,Y,Z Vertex 3 {m}
  0, -12.9315688143396, 2.4384;           !- X,Y,Z Vertex 4 {m}

OS:Surface,
  {64a6b9ca-b4c5-4bab-96bb-e74ad7911429}, !- Handle
  Surface 3,                              !- Name
  Wall,                                   !- Surface Type
  ,                                       !- Construction Name
  {6cd55b58-734d-4536-9aaa-536e056a4ebf}, !- Space Name
  Outdoors,                               !- Outside Boundary Condition
  ,                                       !- Outside Boundary Condition Object
  SunExposed,                             !- Sun Exposure
  WindExposed,                            !- Wind Exposure
  ,                                       !- View Factor to Ground
  ,                                       !- Number of Vertices
  6.46578440716979, 0, 2.4384,            !- X,Y,Z Vertex 1 {m}
  6.46578440716979, 0, 0,                 !- X,Y,Z Vertex 2 {m}
  0, 0, 0,                                !- X,Y,Z Vertex 3 {m}
  0, 0, 2.4384;                           !- X,Y,Z Vertex 4 {m}

OS:Surface,
  {13e6b9e8-a926-4b4d-84be-e0947a69c104}, !- Handle
  Surface 4,                              !- Name
  Wall,                                   !- Surface Type
  ,                                       !- Construction Name
  {6cd55b58-734d-4536-9aaa-536e056a4ebf}, !- Space Name
  Surface,                                !- Outside Boundary Condition
  {de290edf-cfd5-46db-97f4-cdbaaca593cf}, !- Outside Boundary Condition Object
  NoSun,                                  !- Sun Exposure
  NoWind,                                 !- Wind Exposure
  ,                                       !- View Factor to Ground
  ,                                       !- Number of Vertices
  6.46578440716979, -12.9315688143396, 2.4384, !- X,Y,Z Vertex 1 {m}
  6.46578440716979, -12.9315688143396, 0, !- X,Y,Z Vertex 2 {m}
  6.46578440716979, 0, 0,                 !- X,Y,Z Vertex 3 {m}
  6.46578440716979, 0, 2.4384;            !- X,Y,Z Vertex 4 {m}

OS:Surface,
  {684454c6-0258-4137-af72-97d3e70e5088}, !- Handle
  Surface 5,                              !- Name
  Wall,                                   !- Surface Type
  ,                                       !- Construction Name
  {6cd55b58-734d-4536-9aaa-536e056a4ebf}, !- Space Name
  Outdoors,                               !- Outside Boundary Condition
  ,                                       !- Outside Boundary Condition Object
  SunExposed,                             !- Sun Exposure
  WindExposed,                            !- Wind Exposure
  ,                                       !- View Factor to Ground
  ,                                       !- Number of Vertices
  0, -12.9315688143396, 2.4384,           !- X,Y,Z Vertex 1 {m}
  0, -12.9315688143396, 0,                !- X,Y,Z Vertex 2 {m}
  6.46578440716979, -12.9315688143396, 0, !- X,Y,Z Vertex 3 {m}
  6.46578440716979, -12.9315688143396, 2.4384; !- X,Y,Z Vertex 4 {m}

OS:Surface,
  {f78db58d-6439-4f96-941d-878a9f1f1594}, !- Handle
  Surface 6,                              !- Name
  RoofCeiling,                            !- Surface Type
  ,                                       !- Construction Name
  {6cd55b58-734d-4536-9aaa-536e056a4ebf}, !- Space Name
  Surface,                                !- Outside Boundary Condition
  {0b626c25-8c1f-49f1-9ae8-571b1beac058}, !- Outside Boundary Condition Object
  NoSun,                                  !- Sun Exposure
  NoWind,                                 !- Wind Exposure
  ,                                       !- View Factor to Ground
  ,                                       !- Number of Vertices
  6.46578440716979, -12.9315688143396, 2.4384, !- X,Y,Z Vertex 1 {m}
  6.46578440716979, 0, 2.4384,            !- X,Y,Z Vertex 2 {m}
  0, 0, 2.4384,                           !- X,Y,Z Vertex 3 {m}
  0, -12.9315688143396, 2.4384;           !- X,Y,Z Vertex 4 {m}

OS:SpaceType,
  {7ea2bf57-7fd3-4fb5-b942-adbfa873a9cf}, !- Handle
  Space Type 1,                           !- Name
  ,                                       !- Default Construction Set Name
  ,                                       !- Default Schedule Set Name
  ,                                       !- Group Rendering Name
  ,                                       !- Design Specification Outdoor Air Object Name
  ,                                       !- Standards Template
  ,                                       !- Standards Building Type
  living;                                 !- Standards Space Type

OS:ThermalZone,
  {a1bee699-a36d-4fb2-b50a-34aeaf7d16f1}, !- Handle
  living zone|unit 2,                     !- Name
  ,                                       !- Multiplier
  ,                                       !- Ceiling Height {m}
  ,                                       !- Volume {m3}
  ,                                       !- Floor Area {m2}
  ,                                       !- Zone Inside Convection Algorithm
  ,                                       !- Zone Outside Convection Algorithm
  ,                                       !- Zone Conditioning Equipment List Name
  {dbccfe39-5c2b-4482-9172-33bcd53b388c}, !- Zone Air Inlet Port List
  {6e9185b4-baf3-47a2-a944-8395a4e33fea}, !- Zone Air Exhaust Port List
  {1c6c6297-ebc1-4569-9228-f876e6d67485}, !- Zone Air Node Name
  {5e0b5086-169c-420d-8689-f832d607c3a7}, !- Zone Return Air Port List
  ,                                       !- Primary Daylighting Control Name
  ,                                       !- Fraction of Zone Controlled by Primary Daylighting Control
  ,                                       !- Secondary Daylighting Control Name
  ,                                       !- Fraction of Zone Controlled by Secondary Daylighting Control
  ,                                       !- Illuminance Map Name
  ,                                       !- Group Rendering Name
  {199bcd24-ebc8-4d8a-a0c5-b2fed448d775}, !- Thermostat Name
  No;                                     !- Use Ideal Air Loads

OS:Node,
  {7ed28f64-34ee-4ddc-9103-4a69081178c1}, !- Handle
  Node 2,                                 !- Name
  {1c6c6297-ebc1-4569-9228-f876e6d67485}, !- Inlet Port
  ;                                       !- Outlet Port

OS:Connection,
  {1c6c6297-ebc1-4569-9228-f876e6d67485}, !- Handle
  {56047a91-4cd7-4620-b730-79a62d952048}, !- Name
  {a1bee699-a36d-4fb2-b50a-34aeaf7d16f1}, !- Source Object
  11,                                     !- Outlet Port
  {7ed28f64-34ee-4ddc-9103-4a69081178c1}, !- Target Object
  2;                                      !- Inlet Port

OS:PortList,
  {dbccfe39-5c2b-4482-9172-33bcd53b388c}, !- Handle
  {79291d69-fd42-47ab-8841-7aa92c0dc9c7}, !- Name
  {a1bee699-a36d-4fb2-b50a-34aeaf7d16f1}; !- HVAC Component

OS:PortList,
  {6e9185b4-baf3-47a2-a944-8395a4e33fea}, !- Handle
  {c9e02876-8abe-42ef-8556-f5d5ac95b6cb}, !- Name
  {a1bee699-a36d-4fb2-b50a-34aeaf7d16f1}; !- HVAC Component

OS:PortList,
  {5e0b5086-169c-420d-8689-f832d607c3a7}, !- Handle
  {36937e72-8405-401f-aa98-34a0c03a3126}, !- Name
  {a1bee699-a36d-4fb2-b50a-34aeaf7d16f1}; !- HVAC Component

OS:Sizing:Zone,
  {ceaa4b41-6932-4d49-8412-7660268de33d}, !- Handle
  {a1bee699-a36d-4fb2-b50a-34aeaf7d16f1}, !- Zone or ZoneList Name
  SupplyAirTemperature,                   !- Zone Cooling Design Supply Air Temperature Input Method
  14,                                     !- Zone Cooling Design Supply Air Temperature {C}
  11.11,                                  !- Zone Cooling Design Supply Air Temperature Difference {deltaC}
  SupplyAirTemperature,                   !- Zone Heating Design Supply Air Temperature Input Method
  40,                                     !- Zone Heating Design Supply Air Temperature {C}
  11.11,                                  !- Zone Heating Design Supply Air Temperature Difference {deltaC}
  0.0085,                                 !- Zone Cooling Design Supply Air Humidity Ratio {kg-H2O/kg-air}
  0.008,                                  !- Zone Heating Design Supply Air Humidity Ratio {kg-H2O/kg-air}
  ,                                       !- Zone Heating Sizing Factor
  ,                                       !- Zone Cooling Sizing Factor
  DesignDay,                              !- Cooling Design Air Flow Method
  ,                                       !- Cooling Design Air Flow Rate {m3/s}
  ,                                       !- Cooling Minimum Air Flow per Zone Floor Area {m3/s-m2}
  ,                                       !- Cooling Minimum Air Flow {m3/s}
  ,                                       !- Cooling Minimum Air Flow Fraction
  DesignDay,                              !- Heating Design Air Flow Method
  ,                                       !- Heating Design Air Flow Rate {m3/s}
  ,                                       !- Heating Maximum Air Flow per Zone Floor Area {m3/s-m2}
  ,                                       !- Heating Maximum Air Flow {m3/s}
  ,                                       !- Heating Maximum Air Flow Fraction
  ,                                       !- Design Zone Air Distribution Effectiveness in Cooling Mode
  ,                                       !- Design Zone Air Distribution Effectiveness in Heating Mode
  No,                                     !- Account for Dedicated Outdoor Air System
  NeutralSupplyAir,                       !- Dedicated Outdoor Air System Control Strategy
  autosize,                               !- Dedicated Outdoor Air Low Setpoint Temperature for Design {C}
  autosize;                               !- Dedicated Outdoor Air High Setpoint Temperature for Design {C}

OS:ZoneHVAC:EquipmentList,
  {2ada0107-299e-4514-b676-36d8d7ae3335}, !- Handle
  Zone HVAC Equipment List 2,             !- Name
  {a1bee699-a36d-4fb2-b50a-34aeaf7d16f1}, !- Thermal Zone
  ,                                       !- Load Distribution Scheme
  {d3ac7777-24e0-406b-aa42-c387ff7094ca}, !- Zone Equipment 1
  1,                                      !- Zone Equipment Cooling Sequence 1
  1,                                      !- Zone Equipment Heating or No-Load Sequence 1
  ,                                       !- Zone Equipment Sequential Cooling Fraction 1
  ;                                       !- Zone Equipment Sequential Heating Fraction 1

OS:Space,
  {7eca739a-e34a-4502-9c59-aac4857eaa8e}, !- Handle
  living space|unit 2|story 1,            !- Name
  {7ea2bf57-7fd3-4fb5-b942-adbfa873a9cf}, !- Space Type Name
  ,                                       !- Default Construction Set Name
  ,                                       !- Default Schedule Set Name
  -0,                                     !- Direction of Relative North {deg}
  0,                                      !- X Origin {m}
  0,                                      !- Y Origin {m}
  0,                                      !- Z Origin {m}
  ,                                       !- Building Story Name
  {a1bee699-a36d-4fb2-b50a-34aeaf7d16f1}, !- Thermal Zone Name
  ,                                       !- Part of Total Floor Area
  ,                                       !- Design Specification Outdoor Air Object Name
  {47ae9108-e61f-4f06-9ba1-ef67e6a0bd82}; !- Building Unit Name

OS:Surface,
  {a3484932-fe2e-4703-bf6a-9150c14e49ca}, !- Handle
  Surface 12,                             !- Name
  Wall,                                   !- Surface Type
  ,                                       !- Construction Name
  {7eca739a-e34a-4502-9c59-aac4857eaa8e}, !- Space Name
  Outdoors,                               !- Outside Boundary Condition
  ,                                       !- Outside Boundary Condition Object
  SunExposed,                             !- Sun Exposure
  WindExposed,                            !- Wind Exposure
  ,                                       !- View Factor to Ground
  ,                                       !- Number of Vertices
  12.9315688143396, 0, 2.4384,            !- X,Y,Z Vertex 1 {m}
  12.9315688143396, 0, 0,                 !- X,Y,Z Vertex 2 {m}
  6.46578440716979, 0, 0,                 !- X,Y,Z Vertex 3 {m}
  6.46578440716979, 0, 2.4384;            !- X,Y,Z Vertex 4 {m}

OS:Surface,
  {74698c16-5e9c-418b-904c-53bca7024f05}, !- Handle
  Surface 13,                             !- Name
  Wall,                                   !- Surface Type
  ,                                       !- Construction Name
  {7eca739a-e34a-4502-9c59-aac4857eaa8e}, !- Space Name
  Outdoors,                               !- Outside Boundary Condition
  ,                                       !- Outside Boundary Condition Object
  SunExposed,                             !- Sun Exposure
  WindExposed,                            !- Wind Exposure
  ,                                       !- View Factor to Ground
  ,                                       !- Number of Vertices
  6.46578440716979, -12.9315688143396, 2.4384, !- X,Y,Z Vertex 1 {m}
  6.46578440716979, -12.9315688143396, 0, !- X,Y,Z Vertex 2 {m}
  12.9315688143396, -12.9315688143396, 0, !- X,Y,Z Vertex 3 {m}
  12.9315688143396, -12.9315688143396, 2.4384; !- X,Y,Z Vertex 4 {m}

OS:Surface,
  {fc2b5af0-8483-4da7-99c5-3f9c2fa459f0}, !- Handle
  Surface 14,                             !- Name
  Floor,                                  !- Surface Type
  ,                                       !- Construction Name
  {7eca739a-e34a-4502-9c59-aac4857eaa8e}, !- Space Name
  Foundation,                             !- Outside Boundary Condition
  ,                                       !- Outside Boundary Condition Object
  NoSun,                                  !- Sun Exposure
  NoWind,                                 !- Wind Exposure
  ,                                       !- View Factor to Ground
  ,                                       !- Number of Vertices
  6.46578440716979, -12.9315688143396, 0, !- X,Y,Z Vertex 1 {m}
  6.46578440716979, 0, 0,                 !- X,Y,Z Vertex 2 {m}
  12.9315688143396, 0, 0,                 !- X,Y,Z Vertex 3 {m}
  12.9315688143396, -12.9315688143396, 0; !- X,Y,Z Vertex 4 {m}

OS:Surface,
  {be893f1f-cb6c-4f3b-be9e-a639ca658661}, !- Handle
  Surface 15,                             !- Name
  RoofCeiling,                            !- Surface Type
  ,                                       !- Construction Name
  {7eca739a-e34a-4502-9c59-aac4857eaa8e}, !- Space Name
  Surface,                                !- Outside Boundary Condition
  {4ddbb29d-6101-4b43-98bd-f0d8ecfde38d}, !- Outside Boundary Condition Object
  NoSun,                                  !- Sun Exposure
  NoWind,                                 !- Wind Exposure
  ,                                       !- View Factor to Ground
  ,                                       !- Number of Vertices
  12.9315688143396, -12.9315688143396, 2.4384, !- X,Y,Z Vertex 1 {m}
  12.9315688143396, 0, 2.4384,            !- X,Y,Z Vertex 2 {m}
  6.46578440716979, 0, 2.4384,            !- X,Y,Z Vertex 3 {m}
  6.46578440716979, -12.9315688143396, 2.4384; !- X,Y,Z Vertex 4 {m}

OS:Surface,
  {3a405cc6-5629-4d44-a9f6-1331d1c8486a}, !- Handle
  Surface 16,                             !- Name
  Wall,                                   !- Surface Type
  ,                                       !- Construction Name
  {7eca739a-e34a-4502-9c59-aac4857eaa8e}, !- Space Name
  Surface,                                !- Outside Boundary Condition
  {2050ce7a-2d36-4095-93bf-754f3e23702e}, !- Outside Boundary Condition Object
  NoSun,                                  !- Sun Exposure
  NoWind,                                 !- Wind Exposure
  ,                                       !- View Factor to Ground
  ,                                       !- Number of Vertices
  12.9315688143396, -12.9315688143396, 2.4384, !- X,Y,Z Vertex 1 {m}
  12.9315688143396, -12.9315688143396, 0, !- X,Y,Z Vertex 2 {m}
  12.9315688143396, 0, 0,                 !- X,Y,Z Vertex 3 {m}
  12.9315688143396, 0, 2.4384;            !- X,Y,Z Vertex 4 {m}

OS:Surface,
  {de290edf-cfd5-46db-97f4-cdbaaca593cf}, !- Handle
  Surface 17,                             !- Name
  Wall,                                   !- Surface Type
  ,                                       !- Construction Name
  {7eca739a-e34a-4502-9c59-aac4857eaa8e}, !- Space Name
  Surface,                                !- Outside Boundary Condition
  {13e6b9e8-a926-4b4d-84be-e0947a69c104}, !- Outside Boundary Condition Object
  NoSun,                                  !- Sun Exposure
  NoWind,                                 !- Wind Exposure
  ,                                       !- View Factor to Ground
  ,                                       !- Number of Vertices
  6.46578440716979, 0, 2.4384,            !- X,Y,Z Vertex 1 {m}
  6.46578440716979, 0, 0,                 !- X,Y,Z Vertex 2 {m}
  6.46578440716979, -12.9315688143396, 0, !- X,Y,Z Vertex 3 {m}
  6.46578440716979, -12.9315688143396, 2.4384; !- X,Y,Z Vertex 4 {m}

OS:ThermalZone,
  {c88b4189-272d-45d7-a2bd-4655d2d589ec}, !- Handle
  living zone|unit 3,                     !- Name
  ,                                       !- Multiplier
  ,                                       !- Ceiling Height {m}
  ,                                       !- Volume {m3}
  ,                                       !- Floor Area {m2}
  ,                                       !- Zone Inside Convection Algorithm
  ,                                       !- Zone Outside Convection Algorithm
  ,                                       !- Zone Conditioning Equipment List Name
  {83752836-3b7b-40d6-83ac-1362dd6c54ca}, !- Zone Air Inlet Port List
  {c68bbc81-323c-4b84-8527-7b236d4a2c88}, !- Zone Air Exhaust Port List
  {0ad540e6-eaef-4d1f-8bf4-a09094b78ebb}, !- Zone Air Node Name
  {5d52796d-b1b3-404d-8808-29bdbeb569fa}, !- Zone Return Air Port List
  ,                                       !- Primary Daylighting Control Name
  ,                                       !- Fraction of Zone Controlled by Primary Daylighting Control
  ,                                       !- Secondary Daylighting Control Name
  ,                                       !- Fraction of Zone Controlled by Secondary Daylighting Control
  ,                                       !- Illuminance Map Name
  ,                                       !- Group Rendering Name
  {3fae54ec-2e6e-4d2d-b057-34e48b1be697}, !- Thermostat Name
  No;                                     !- Use Ideal Air Loads

OS:Node,
  {013faec7-ce69-44ce-b074-e9949b2a7810}, !- Handle
  Node 3,                                 !- Name
  {0ad540e6-eaef-4d1f-8bf4-a09094b78ebb}, !- Inlet Port
  ;                                       !- Outlet Port

OS:Connection,
  {0ad540e6-eaef-4d1f-8bf4-a09094b78ebb}, !- Handle
  {83fa2a63-52f2-4a07-8c63-9561c79ca1f4}, !- Name
  {c88b4189-272d-45d7-a2bd-4655d2d589ec}, !- Source Object
  11,                                     !- Outlet Port
  {013faec7-ce69-44ce-b074-e9949b2a7810}, !- Target Object