!- NOTE: Auto-generated from /test/osw_files/SFA_10units_2story_CS_UA_3Beds_2Baths_Denver.osw

OS:Version,
  {be9f9e9f-e402-4726-b412-0a2c56450bb3}, !- Handle
  2.9.0;                                  !- Version Identifier

OS:SimulationControl,
  {7fb91dc3-65a1-461a-8e1a-45485080a3aa}, !- Handle
  ,                                       !- Do Zone Sizing Calculation
  ,                                       !- Do System Sizing Calculation
  ,                                       !- Do Plant Sizing Calculation
  No;                                     !- Run Simulation for Sizing Periods

OS:Timestep,
  {dcc0e7de-bb1a-47a8-90e1-f3c6f1905f86}, !- Handle
  6;                                      !- Number of Timesteps per Hour

OS:ShadowCalculation,
  {c66c8fdf-c179-4cf9-ad9e-90546026331c}, !- Handle
  20,                                     !- Calculation Frequency
  200;                                    !- Maximum Figures in Shadow Overlap Calculations

OS:SurfaceConvectionAlgorithm:Outside,
  {4e53580a-5fef-401a-becc-3f3382bb2747}, !- Handle
  DOE-2;                                  !- Algorithm

OS:SurfaceConvectionAlgorithm:Inside,
  {da0e41e8-e49a-4579-ae5b-390023b7b703}, !- Handle
  TARP;                                   !- Algorithm

OS:ZoneCapacitanceMultiplier:ResearchSpecial,
  {34a85c3d-6274-4d34-846b-68ea54d96d30}, !- Handle
  ,                                       !- Temperature Capacity Multiplier
  15,                                     !- Humidity Capacity Multiplier
  ;                                       !- Carbon Dioxide Capacity Multiplier

OS:RunPeriod,
  {7f91e256-b4d2-48b3-b653-647dfee1bff8}, !- Handle
  Run Period 1,                           !- Name
  1,                                      !- Begin Month
  1,                                      !- Begin Day of Month
  12,                                     !- End Month
  31,                                     !- End Day of Month
  ,                                       !- Use Weather File Holidays and Special Days
  ,                                       !- Use Weather File Daylight Saving Period
  ,                                       !- Apply Weekend Holiday Rule
  ,                                       !- Use Weather File Rain Indicators
  ,                                       !- Use Weather File Snow Indicators
  ;                                       !- Number of Times Runperiod to be Repeated

OS:YearDescription,
  {b00cfccb-731e-4f00-bfe9-b298c439c307}, !- Handle
  2007,                                   !- Calendar Year
  ,                                       !- Day of Week for Start Day
  ;                                       !- Is Leap Year

OS:ThermalZone,
  {a22eb9d6-fa05-4d43-8ad6-b42206181b29}, !- Handle
  living zone,                            !- Name
  ,                                       !- Multiplier
  ,                                       !- Ceiling Height {m}
  ,                                       !- Volume {m3}
  ,                                       !- Floor Area {m2}
  ,                                       !- Zone Inside Convection Algorithm
  ,                                       !- Zone Outside Convection Algorithm
  ,                                       !- Zone Conditioning Equipment List Name
  {166028ed-e04f-41b2-ad8f-3d8a9292ef86}, !- Zone Air Inlet Port List
  {f2c67e7e-2783-4df0-8035-69b7a1fe29bd}, !- Zone Air Exhaust Port List
  {473b390d-6f55-4735-8aab-0179de5aa848}, !- Zone Air Node Name
  {67705661-bde1-464e-91d4-4e630a36d39f}, !- Zone Return Air Port List
  ,                                       !- Primary Daylighting Control Name
  ,                                       !- Fraction of Zone Controlled by Primary Daylighting Control
  ,                                       !- Secondary Daylighting Control Name
  ,                                       !- Fraction of Zone Controlled by Secondary Daylighting Control
  ,                                       !- Illuminance Map Name
  ,                                       !- Group Rendering Name
  ,                                       !- Thermostat Name
  No;                                     !- Use Ideal Air Loads

OS:Node,
  {c245535f-8ca6-4754-980c-660f5283e5d5}, !- Handle
  Node 1,                                 !- Name
  {473b390d-6f55-4735-8aab-0179de5aa848}, !- Inlet Port
  ;                                       !- Outlet Port

OS:Connection,
  {473b390d-6f55-4735-8aab-0179de5aa848}, !- Handle
  {1d875c71-e273-4fa3-a6d6-18651012ab48}, !- Name
  {a22eb9d6-fa05-4d43-8ad6-b42206181b29}, !- Source Object
  11,                                     !- Outlet Port
  {c245535f-8ca6-4754-980c-660f5283e5d5}, !- Target Object
  2;                                      !- Inlet Port

OS:PortList,
  {166028ed-e04f-41b2-ad8f-3d8a9292ef86}, !- Handle
  {2b09811b-5029-414d-886c-c23751c86cb8}, !- Name
  {a22eb9d6-fa05-4d43-8ad6-b42206181b29}; !- HVAC Component

OS:PortList,
  {f2c67e7e-2783-4df0-8035-69b7a1fe29bd}, !- Handle
  {51d62159-a9c5-446a-98ec-6b81f1c72544}, !- Name
  {a22eb9d6-fa05-4d43-8ad6-b42206181b29}; !- HVAC Component

OS:PortList,
  {67705661-bde1-464e-91d4-4e630a36d39f}, !- Handle
  {f2dd91cb-d59d-4cae-a4b0-98ff3a891eb4}, !- Name
  {a22eb9d6-fa05-4d43-8ad6-b42206181b29}; !- HVAC Component

OS:Sizing:Zone,
  {358f2299-f4de-49ef-903b-a260b23cb74b}, !- Handle
  {a22eb9d6-fa05-4d43-8ad6-b42206181b29}, !- Zone or ZoneList Name
  SupplyAirTemperature,                   !- Zone Cooling Design Supply Air Temperature Input Method
  14,                                     !- Zone Cooling Design Supply Air Temperature {C}
  11.11,                                  !- Zone Cooling Design Supply Air Temperature Difference {deltaC}
  SupplyAirTemperature,                   !- Zone Heating Design Supply Air Temperature Input Method
  40,                                     !- Zone Heating Design Supply Air Temperature {C}
  11.11,                                  !- Zone Heating Design Supply Air Temperature Difference {deltaC}
  0.0085,                                 !- Zone Cooling Design Supply Air Humidity Ratio {kg-H2O/kg-air}
  0.008,                                  !- Zone Heating Design Supply Air Humidity Ratio {kg-H2O/kg-air}
  ,                                       !- Zone Heating Sizing Factor
  ,                                       !- Zone Cooling Sizing Factor
  DesignDay,                              !- Cooling Design Air Flow Method
  ,                                       !- Cooling Design Air Flow Rate {m3/s}
  ,                                       !- Cooling Minimum Air Flow per Zone Floor Area {m3/s-m2}
  ,                                       !- Cooling Minimum Air Flow {m3/s}
  ,                                       !- Cooling Minimum Air Flow Fraction
  DesignDay,                              !- Heating Design Air Flow Method
  ,                                       !- Heating Design Air Flow Rate {m3/s}
  ,                                       !- Heating Maximum Air Flow per Zone Floor Area {m3/s-m2}
  ,                                       !- Heating Maximum Air Flow {m3/s}
  ,                                       !- Heating Maximum Air Flow Fraction
  ,                                       !- Design Zone Air Distribution Effectiveness in Cooling Mode
  ,                                       !- Design Zone Air Distribution Effectiveness in Heating Mode
  No,                                     !- Account for Dedicated Outdoor Air System
  NeutralSupplyAir,                       !- Dedicated Outdoor Air System Control Strategy
  autosize,                               !- Dedicated Outdoor Air Low Setpoint Temperature for Design {C}
  autosize;                               !- Dedicated Outdoor Air High Setpoint Temperature for Design {C}

OS:ZoneHVAC:EquipmentList,
  {6d569b08-2e28-42f9-beac-46a818a4ab2c}, !- Handle
  Zone HVAC Equipment List 1,             !- Name
  {a22eb9d6-fa05-4d43-8ad6-b42206181b29}; !- Thermal Zone

OS:Space,
  {00937690-2c37-4e7c-918d-fc3af124d5f8}, !- Handle
  living space,                           !- Name
  {c26759b1-c2bd-4885-b83d-28f6d8af6c8a}, !- Space Type Name
  ,                                       !- Default Construction Set Name
  ,                                       !- Default Schedule Set Name
  ,                                       !- Direction of Relative North {deg}
  ,                                       !- X Origin {m}
  ,                                       !- Y Origin {m}
  ,                                       !- Z Origin {m}
  ,                                       !- Building Story Name
  {a22eb9d6-fa05-4d43-8ad6-b42206181b29}, !- Thermal Zone Name
  ,                                       !- Part of Total Floor Area
  ,                                       !- Design Specification Outdoor Air Object Name
  {f0501f87-ead1-4a03-9228-fd77b6155455}; !- Building Unit Name

OS:Surface,
  {a0bd729a-aceb-42ed-81ef-3166ea814a27}, !- Handle
  Surface 1,                              !- Name
  Floor,                                  !- Surface Type
  ,                                       !- Construction Name
  {00937690-2c37-4e7c-918d-fc3af124d5f8}, !- Space Name
  Surface,                                !- Outside Boundary Condition
  {a89af242-a8f2-477a-bbda-ace7510692dd}, !- Outside Boundary Condition Object
  NoSun,                                  !- Sun Exposure
  NoWind,                                 !- Wind Exposure
  ,                                       !- View Factor to Ground
  ,                                       !- Number of Vertices
  0, -9.144, 0,                           !- X,Y,Z Vertex 1 {m}
  0, 0, 0,                                !- X,Y,Z Vertex 2 {m}
  4.572, 0, 0,                            !- X,Y,Z Vertex 3 {m}
  4.572, -9.144, 0;                       !- X,Y,Z Vertex 4 {m}

OS:Surface,
  {b083ee1d-a0ff-4d5c-b959-9fbb69197cf8}, !- Handle
  Surface 2,                              !- Name
  Wall,                                   !- Surface Type
  ,                                       !- Construction Name
  {00937690-2c37-4e7c-918d-fc3af124d5f8}, !- Space Name
  Outdoors,                               !- Outside Boundary Condition
  ,                                       !- Outside Boundary Condition Object
  SunExposed,                             !- Sun Exposure
  WindExposed,                            !- Wind Exposure
  ,                                       !- View Factor to Ground
  ,                                       !- Number of Vertices
  0, 0, 2.4384,                           !- X,Y,Z Vertex 1 {m}
  0, 0, 0,                                !- X,Y,Z Vertex 2 {m}
  0, -9.144, 0,                           !- X,Y,Z Vertex 3 {m}
  0, -9.144, 2.4384;                      !- X,Y,Z Vertex 4 {m}

OS:Surface,
  {6f96671d-db54-47d9-988b-790e2f91e053}, !- Handle
  Surface 3,                              !- Name
  Wall,                                   !- Surface Type
  ,                                       !- Construction Name
  {00937690-2c37-4e7c-918d-fc3af124d5f8}, !- Space Name
  Outdoors,                               !- Outside Boundary Condition
  ,                                       !- Outside Boundary Condition Object
  SunExposed,                             !- Sun Exposure
  WindExposed,                            !- Wind Exposure
  ,                                       !- View Factor to Ground
  ,                                       !- Number of Vertices
  4.572, 0, 2.4384,                       !- X,Y,Z Vertex 1 {m}
  4.572, 0, 0,                            !- X,Y,Z Vertex 2 {m}
  0, 0, 0,                                !- X,Y,Z Vertex 3 {m}
  0, 0, 2.4384;                           !- X,Y,Z Vertex 4 {m}

OS:Surface,
  {78dcef73-b098-4c01-a27f-51f46f56c0cd}, !- Handle
  Surface 4,                              !- Name
  Wall,                                   !- Surface Type
  ,                                       !- Construction Name
  {00937690-2c37-4e7c-918d-fc3af124d5f8}, !- Space Name
  Surface,                                !- Outside Boundary Condition
  {d79b6a8a-c873-493e-8cbf-2e8fccf7955c}, !- Outside Boundary Condition Object
  NoSun,                                  !- Sun Exposure
  NoWind,                                 !- Wind Exposure
  ,                                       !- View Factor to Ground
  ,                                       !- Number of Vertices
  4.572, -9.144, 2.4384,                  !- X,Y,Z Vertex 1 {m}
  4.572, -9.144, 0,                       !- X,Y,Z Vertex 2 {m}
  4.572, 0, 0,                            !- X,Y,Z Vertex 3 {m}
  4.572, 0, 2.4384;                       !- X,Y,Z Vertex 4 {m}

OS:Surface,
  {f1dba76e-d39f-4bf8-90ee-423ebf26338a}, !- Handle
  Surface 5,                              !- Name
  Wall,                                   !- Surface Type
  ,                                       !- Construction Name
  {00937690-2c37-4e7c-918d-fc3af124d5f8}, !- Space Name
  Outdoors,                               !- Outside Boundary Condition
  ,                                       !- Outside Boundary Condition Object
  SunExposed,                             !- Sun Exposure
  WindExposed,                            !- Wind Exposure
  ,                                       !- View Factor to Ground
  ,                                       !- Number of Vertices
  0, -9.144, 2.4384,                      !- X,Y,Z Vertex 1 {m}
  0, -9.144, 0,                           !- X,Y,Z Vertex 2 {m}
  4.572, -9.144, 0,                       !- X,Y,Z Vertex 3 {m}
  4.572, -9.144, 2.4384;                  !- X,Y,Z Vertex 4 {m}

OS:Surface,
  {bb639914-2669-43e1-9e6c-1954ac63f269}, !- Handle
  Surface 6,                              !- Name
  RoofCeiling,                            !- Surface Type
  ,                                       !- Construction Name
  {00937690-2c37-4e7c-918d-fc3af124d5f8}, !- Space Name
  Surface,                                !- Outside Boundary Condition
  {660b6de5-e0d9-4f60-b76a-1cc2853d9c1e}, !- Outside Boundary Condition Object
  NoSun,                                  !- Sun Exposure
  NoWind,                                 !- Wind Exposure
  ,                                       !- View Factor to Ground
  ,                                       !- Number of Vertices
  4.572, -9.144, 2.4384,                  !- X,Y,Z Vertex 1 {m}
  4.572, 0, 2.4384,                       !- X,Y,Z Vertex 2 {m}
  0, 0, 2.4384,                           !- X,Y,Z Vertex 3 {m}
  0, -9.144, 2.4384;                      !- X,Y,Z Vertex 4 {m}

OS:SpaceType,
  {c26759b1-c2bd-4885-b83d-28f6d8af6c8a}, !- Handle
  Space Type 1,                           !- Name
  ,                                       !- Default Construction Set Name
  ,                                       !- Default Schedule Set Name
  ,                                       !- Group Rendering Name
  ,                                       !- Design Specification Outdoor Air Object Name
  ,                                       !- Standards Template
  ,                                       !- Standards Building Type
  living;                                 !- Standards Space Type

OS:Space,
  {dcb454b6-e238-4f86-9c90-5b03d4d35750}, !- Handle
  living space|story 2,                   !- Name
  {c26759b1-c2bd-4885-b83d-28f6d8af6c8a}, !- Space Type Name
  ,                                       !- Default Construction Set Name
  ,                                       !- Default Schedule Set Name
  -0,                                     !- Direction of Relative North {deg}
  0,                                      !- X Origin {m}
  0,                                      !- Y Origin {m}
  2.4384,                                 !- Z Origin {m}
  ,                                       !- Building Story Name
  {a22eb9d6-fa05-4d43-8ad6-b42206181b29}, !- Thermal Zone Name
  ,                                       !- Part of Total Floor Area
  ,                                       !- Design Specification Outdoor Air Object Name
  {f0501f87-ead1-4a03-9228-fd77b6155455}; !- Building Unit Name

OS:Surface,
  {660b6de5-e0d9-4f60-b76a-1cc2853d9c1e}, !- Handle
  Surface 7,                              !- Name
  Floor,                                  !- Surface Type
  ,                                       !- Construction Name
  {dcb454b6-e238-4f86-9c90-5b03d4d35750}, !- Space Name
  Surface,                                !- Outside Boundary Condition
  {bb639914-2669-43e1-9e6c-1954ac63f269}, !- Outside Boundary Condition Object
  NoSun,                                  !- Sun Exposure
  NoWind,                                 !- Wind Exposure
  ,                                       !- View Factor to Ground
  ,                                       !- Number of Vertices
  0, -9.144, 0,                           !- X,Y,Z Vertex 1 {m}
  0, 0, 0,                                !- X,Y,Z Vertex 2 {m}
  4.572, 0, 0,                            !- X,Y,Z Vertex 3 {m}
  4.572, -9.144, 0;                       !- X,Y,Z Vertex 4 {m}

OS:Surface,
  {b0244662-0fa7-463b-8ccc-2fba3d40c208}, !- Handle
  Surface 8,                              !- Name
  Wall,                                   !- Surface Type
  ,                                       !- Construction Name
  {dcb454b6-e238-4f86-9c90-5b03d4d35750}, !- Space Name
  Outdoors,                               !- Outside Boundary Condition
  ,                                       !- Outside Boundary Condition Object
  SunExposed,                             !- Sun Exposure
  WindExposed,                            !- Wind Exposure
  ,                                       !- View Factor to Ground
  ,                                       !- Number of Vertices
  0, -9.144, 2.4384,                      !- X,Y,Z Vertex 1 {m}
  0, -9.144, 0,                           !- X,Y,Z Vertex 2 {m}
  4.572, -9.144, 0,                       !- X,Y,Z Vertex 3 {m}
  4.572, -9.144, 2.4384;                  !- X,Y,Z Vertex 4 {m}

OS:Surface,
  {91fcdc6e-c2c7-4a23-b65e-95a8eba3e0dd}, !- Handle
  Surface 9,                              !- Name
  Wall,                                   !- Surface Type
  ,                                       !- Construction Name
  {dcb454b6-e238-4f86-9c90-5b03d4d35750}, !- Space Name
  Outdoors,                               !- Outside Boundary Condition
  ,                                       !- Outside Boundary Condition Object
  SunExposed,                             !- Sun Exposure
  WindExposed,                            !- Wind Exposure
  ,                                       !- View Factor to Ground
  ,                                       !- Number of Vertices
  0, 0, 2.4384,                           !- X,Y,Z Vertex 1 {m}
  0, 0, 0,                                !- X,Y,Z Vertex 2 {m}
  0, -9.144, 0,                           !- X,Y,Z Vertex 3 {m}
  0, -9.144, 2.4384;                      !- X,Y,Z Vertex 4 {m}

OS:Surface,
  {ed94b486-9c19-4964-b82a-0d36c76d8c69}, !- Handle
  Surface 10,                             !- Name
  Wall,                                   !- Surface Type
  ,                                       !- Construction Name
  {dcb454b6-e238-4f86-9c90-5b03d4d35750}, !- Space Name
  Surface,                                !- Outside Boundary Condition
  {373f5b50-2649-4b24-8e9c-37f133eb9f59}, !- Outside Boundary Condition Object
  NoSun,                                  !- Sun Exposure
  NoWind,                                 !- Wind Exposure
  ,                                       !- View Factor to Ground
  ,                                       !- Number of Vertices
  4.572, -9.144, 2.4384,                  !- X,Y,Z Vertex 1 {m}
  4.572, -9.144, 0,                       !- X,Y,Z Vertex 2 {m}
  4.572, 0, 0,                            !- X,Y,Z Vertex 3 {m}
  4.572, 0, 2.4384;                       !- X,Y,Z Vertex 4 {m}

OS:Surface,
  {715632e5-0e32-4905-85b0-97128cee7faa}, !- Handle
  Surface 11,                             !- Name
  RoofCeiling,                            !- Surface Type
  ,                                       !- Construction Name
  {dcb454b6-e238-4f86-9c90-5b03d4d35750}, !- Space Name
  Surface,                                !- Outside Boundary Condition
  {e581d185-732e-4ed2-8c42-a30016540046}, !- Outside Boundary Condition Object
  NoSun,                                  !- Sun Exposure
  NoWind,                                 !- Wind Exposure
  ,                                       !- View Factor to Ground
  ,                                       !- Number of Vertices
  4.572, -9.144, 2.4384,                  !- X,Y,Z Vertex 1 {m}
  4.572, 0, 2.4384,                       !- X,Y,Z Vertex 2 {m}
  0, 0, 2.4384,                           !- X,Y,Z Vertex 3 {m}
  0, -9.144, 2.4384;                      !- X,Y,Z Vertex 4 {m}

OS:Surface,
  {0131cae9-b4e5-45ff-9d45-63973be01eee}, !- Handle
  Surface 12,                             !- Name
  Wall,                                   !- Surface Type
  ,                                       !- Construction Name
  {dcb454b6-e238-4f86-9c90-5b03d4d35750}, !- Space Name
  Outdoors,                               !- Outside Boundary Condition
  ,                                       !- Outside Boundary Condition Object
  SunExposed,                             !- Sun Exposure
  WindExposed,                            !- Wind Exposure
  ,                                       !- View Factor to Ground
  ,                                       !- Number of Vertices
  4.572, 0, 2.4384,                       !- X,Y,Z Vertex 1 {m}
  4.572, 0, 0,                            !- X,Y,Z Vertex 2 {m}
  0, 0, 0,                                !- X,Y,Z Vertex 3 {m}
  0, 0, 2.4384;                           !- X,Y,Z Vertex 4 {m}

OS:ThermalZone,
  {b0236bbd-6b5b-4069-a4c8-95210a07708f}, !- Handle
  living zone|unit 2,                     !- Name
  ,                                       !- Multiplier
  ,                                       !- Ceiling Height {m}
  ,                                       !- Volume {m3}
  ,                                       !- Floor Area {m2}
  ,                                       !- Zone Inside Convection Algorithm
  ,                                       !- Zone Outside Convection Algorithm
  ,                                       !- Zone Conditioning Equipment List Name
  {621cfcdc-9c83-4492-b630-e76dcc5a4232}, !- Zone Air Inlet Port List
  {d8d293aa-5716-405d-84bf-ac93a872010b}, !- Zone Air Exhaust Port List
  {306c87dd-5cc8-413b-91ea-5ed3066aea42}, !- Zone Air Node Name
  {f6695a00-7e94-41d0-9ce6-8afadd9d1c67}, !- Zone Return Air Port List
  ,                                       !- Primary Daylighting Control Name
  ,                                       !- Fraction of Zone Controlled by Primary Daylighting Control
  ,                                       !- Secondary Daylighting Control Name
  ,                                       !- Fraction of Zone Controlled by Secondary Daylighting Control
  ,                                       !- Illuminance Map Name
  ,                                       !- Group Rendering Name
  ,                                       !- Thermostat Name
  No;                                     !- Use Ideal Air Loads

OS:Node,
  {bdab5bea-29fc-4782-a00f-4dec990cf07e}, !- Handle
  Node 2,                                 !- Name
  {306c87dd-5cc8-413b-91ea-5ed3066aea42}, !- Inlet Port
  ;                                       !- Outlet Port

OS:Connection,
  {306c87dd-5cc8-413b-91ea-5ed3066aea42}, !- Handle
  {919466b6-b2ea-4474-b353-1aff2e2ce99d}, !- Name
  {b0236bbd-6b5b-4069-a4c8-95210a07708f}, !- Source Object
  11,                                     !- Outlet Port
  {bdab5bea-29fc-4782-a00f-4dec990cf07e}, !- Target Object
  2;                                      !- Inlet Port

OS:PortList,
  {621cfcdc-9c83-4492-b630-e76dcc5a4232}, !- Handle
  {53b90f02-2fc5-4f6c-9455-157bd1fb1749}, !- Name
  {b0236bbd-6b5b-4069-a4c8-95210a07708f}; !- HVAC Component

OS:PortList,
  {d8d293aa-5716-405d-84bf-ac93a872010b}, !- Handle
  {35547e33-5934-4ca2-8332-89cf2aba9068}, !- Name
  {b0236bbd-6b5b-4069-a4c8-95210a07708f}; !- HVAC Component

OS:PortList,
  {f6695a00-7e94-41d0-9ce6-8afadd9d1c67}, !- Handle
  {4918a5e0-e831-46e6-b6cc-9e313a774b3c}, !- Name
  {b0236bbd-6b5b-4069-a4c8-95210a07708f}; !- HVAC Component

OS:Sizing:Zone,
  {addd6c48-7a08-462b-ae64-e0780ab28dcf}, !- Handle
  {b0236bbd-6b5b-4069-a4c8-95210a07708f}, !- Zone or ZoneList Name
  SupplyAirTemperature,                   !- Zone Cooling Design Supply Air Temperature Input Method
  14,                                     !- Zone Cooling Design Supply Air Temperature {C}
  11.11,                                  !- Zone Cooling Design Supply Air Temperature Difference {deltaC}
  SupplyAirTemperature,                   !- Zone Heating Design Supply Air Temperature Input Method
  40,                                     !- Zone Heating Design Supply Air Temperature {C}
  11.11,                                  !- Zone Heating Design Supply Air Temperature Difference {deltaC}
  0.0085,                                 !- Zone Cooling Design Supply Air Humidity Ratio {kg-H2O/kg-air}
  0.008,                                  !- Zone Heating Design Supply Air Humidity Ratio {kg-H2O/kg-air}
  ,                                       !- Zone Heating Sizing Factor
  ,                                       !- Zone Cooling Sizing Factor
  DesignDay,                              !- Cooling Design Air Flow Method
  ,                                       !- Cooling Design Air Flow Rate {m3/s}
  ,                                       !- Cooling Minimum Air Flow per Zone Floor Area {m3/s-m2}
  ,                                       !- Cooling Minimum Air Flow {m3/s}
  ,                                       !- Cooling Minimum Air Flow Fraction
  DesignDay,                              !- Heating Design Air Flow Method
  ,                                       !- Heating Design Air Flow Rate {m3/s}
  ,                                       !- Heating Maximum Air Flow per Zone Floor Area {m3/s-m2}
  ,                                       !- Heating Maximum Air Flow {m3/s}
  ,                                       !- Heating Maximum Air Flow Fraction
  ,                                       !- Design Zone Air Distribution Effectiveness in Cooling Mode
  ,                                       !- Design Zone Air Distribution Effectiveness in Heating Mode
  No,                                     !- Account for Dedicated Outdoor Air System
  NeutralSupplyAir,                       !- Dedicated Outdoor Air System Control Strategy
  autosize,                               !- Dedicated Outdoor Air Low Setpoint Temperature for Design {C}
  autosize;                               !- Dedicated Outdoor Air High Setpoint Temperature for Design {C}

OS:ZoneHVAC:EquipmentList,
  {ee03e1c0-60ba-4d4e-b3b7-29801820e628}, !- Handle
  Zone HVAC Equipment List 2,             !- Name
  {b0236bbd-6b5b-4069-a4c8-95210a07708f}; !- Thermal Zone

OS:Space,
  {120f06b8-4472-4032-b94a-f403d1336725}, !- Handle
  living space|unit 2|story 1,            !- Name
  {c26759b1-c2bd-4885-b83d-28f6d8af6c8a}, !- Space Type Name
  ,                                       !- Default Construction Set Name
  ,                                       !- Default Schedule Set Name
  -0,                                     !- Direction of Relative North {deg}
  0,                                      !- X Origin {m}
  0,                                      !- Y Origin {m}
  0,                                      !- Z Origin {m}
  ,                                       !- Building Story Name
  {b0236bbd-6b5b-4069-a4c8-95210a07708f}, !- Thermal Zone Name
  ,                                       !- Part of Total Floor Area
  ,                                       !- Design Specification Outdoor Air Object Name
  {fc505132-355f-42d8-b68f-bfd8aa3f51db}; !- Building Unit Name

OS:Surface,
  {ce89ee16-eedd-4ff5-be37-44e362db87b5}, !- Handle
  Surface 18,                             !- Name
  Floor,                                  !- Surface Type
  ,                                       !- Construction Name
  {120f06b8-4472-4032-b94a-f403d1336725}, !- Space Name
  Surface,                                !- Outside Boundary Condition
  {a67d5b98-8a20-43f0-a645-7ad3e0ca6552}, !- Outside Boundary Condition Object
  NoSun,                                  !- Sun Exposure
  NoWind,                                 !- Wind Exposure
  ,                                       !- View Factor to Ground
  ,                                       !- Number of Vertices
  4.572, -9.144, 0,                       !- X,Y,Z Vertex 1 {m}
  4.572, 0, 0,                            !- X,Y,Z Vertex 2 {m}
  9.144, 0, 0,                            !- X,Y,Z Vertex 3 {m}
  9.144, -9.144, 0;                       !- X,Y,Z Vertex 4 {m}

OS:Surface,
  {1568d8a7-94d0-4bb0-b0d6-77eba4873348}, !- Handle
  Surface 19,                             !- Name
  Wall,                                   !- Surface Type
  ,                                       !- Construction Name
  {120f06b8-4472-4032-b94a-f403d1336725}, !- Space Name
  Outdoors,                               !- Outside Boundary Condition
  ,                                       !- Outside Boundary Condition Object
  SunExposed,                             !- Sun Exposure
  WindExposed,                            !- Wind Exposure
  ,                                       !- View Factor to Ground
  ,                                       !- Number of Vertices
  4.572, -9.144, 2.4384,                  !- X,Y,Z Vertex 1 {m}
  4.572, -9.144, 0,                       !- X,Y,Z Vertex 2 {m}
  9.144, -9.144, 0,                       !- X,Y,Z Vertex 3 {m}
  9.144, -9.144, 2.4384;                  !- X,Y,Z Vertex 4 {m}

OS:Surface,