!- NOTE: Auto-generated from /test/osw_files/SFA_4units_1story_SL_UA_3Beds_2Baths_Denver_Central_System_Fan_Coil.osw

OS:Version,
  {01f4e4e1-6361-4007-a2e2-f6b75210ef72}, !- Handle
  2.7.0;                                  !- Version Identifier

OS:Building,
  {90c02223-d2a0-4a4f-ab85-fd366f40ec75}, !- Handle
  Building 1,                             !- Name
  ,                                       !- Building Sector Type
  0,                                      !- North Axis {deg}
  ,                                       !- Nominal Floor to Floor Height {m}
  ,                                       !- Space Type Name
  ,                                       !- Default Construction Set Name
  ,                                       !- Default Schedule Set Name
  1,                                      !- Standards Number of Stories
  1,                                      !- Standards Number of Above Ground Stories
  ,                                       !- Standards Template
  singlefamilyattached,                   !- Standards Building Type
  4;                                      !- Standards Number of Living Units

OS:Facility,
  {d1f3d577-7f72-40c4-8c0f-5e7d7c52cd13}; !- Handle

OS:Site,
  {dd4ecc16-25a3-4f15-941b-f33a29cfc447}, !- Handle
  Denver Intl Ap_CO_USA,                  !- Name
  39.83,                                  !- Latitude {deg}
  -104.65,                                !- Longitude {deg}
  -7,                                     !- Time Zone {hr}
  1650,                                   !- Elevation {m}
  ;                                       !- Terrain

OS:SimulationControl,
  {d8d3dac1-b795-47a8-88c0-875ba51b052e}, !- Handle
  ,                                       !- Do Zone Sizing Calculation
  ,                                       !- Do System Sizing Calculation
  ,                                       !- Do Plant Sizing Calculation
  Yes;                                    !- Run Simulation for Sizing Periods

OS:Sizing:Parameters,
  {a9dcc803-9ae5-4021-9cc3-f13c9bf40144}, !- Handle
  1.25,                                   !- Heating Sizing Factor
  1.15;                                   !- Cooling Sizing Factor

OS:Timestep,
  {76bb1ec8-4f4c-42b4-bb2c-942d9b40e79a}, !- Handle
  6;                                      !- Number of Timesteps per Hour

OS:ShadowCalculation,
  {2763ee93-5a78-4030-8cc0-f4016db1f772}, !- Handle
  20,                                     !- Calculation Frequency
  200;                                    !- Maximum Figures in Shadow Overlap Calculations

OS:HeatBalanceAlgorithm,
  {5d202c09-97ee-4814-aa60-d1b1f464e5dd}, !- Handle
  ConductionTransferFunction,             !- Algorithm
  200;                                    !- Surface Temperature Upper Limit {C}

OS:RunPeriod,
  {0d6cadcb-1dac-44e2-9a5d-bc00cd1bc8b0}, !- Handle
  Run Period 1,                           !- Name
  1,                                      !- Begin Month
  1,                                      !- Begin Day of Month
  12,                                     !- End Month
  31,                                     !- End Day of Month
  ,                                       !- Use Weather File Holidays and Special Days
  ,                                       !- Use Weather File Daylight Saving Period
  ,                                       !- Apply Weekend Holiday Rule
  ,                                       !- Use Weather File Rain Indicators
  ,                                       !- Use Weather File Snow Indicators
  ;                                       !- Number of Times Runperiod to be Repeated

OS:LifeCycleCost:Parameters,
  {0a6545f3-1ac6-4814-a865-bd9ad72bd63a}, !- Handle
  ,                                       !- Analysis Type
  ,                                       !- Discounting Convention
  ,                                       !- Inflation Approach
  ,                                       !- Real Discount Rate
  ,                                       !- Nominal Discount Rate
  ,                                       !- Inflation
  ,                                       !- Base Date Month
  ,                                       !- Base Date Year
  ,                                       !- Service Date Month
  ,                                       !- Service Date Year
  ;                                       !- Length of Study Period in Years

OS:SurfaceConvectionAlgorithm:Outside,
  {dfe96327-a71e-4aac-a5eb-5ced516d4795}, !- Handle
  DOE-2;                                  !- Algorithm

OS:SurfaceConvectionAlgorithm:Inside,
  {054f2fda-57ea-416b-b3c7-84c4fb7119fa}, !- Handle
  TARP;                                   !- Algorithm

OS:ZoneCapacitanceMultiplier:ResearchSpecial,
  {3cbaf015-4436-4bfb-89e5-c6382f2b9073}, !- Handle
  ,                                       !- Temperature Capacity Multiplier
  15,                                     !- Humidity Capacity Multiplier
  ;                                       !- Carbon Dioxide Capacity Multiplier

OS:ThermalZone,
  {d1ff738c-8497-4d2b-bf97-2d15a2fe85db}, !- Handle
  living zone,                            !- Name
  ,                                       !- Multiplier
  ,                                       !- Ceiling Height {m}
  ,                                       !- Volume {m3}
  ,                                       !- Floor Area {m2}
  ,                                       !- Zone Inside Convection Algorithm
  ,                                       !- Zone Outside Convection Algorithm
  ,                                       !- Zone Conditioning Equipment List Name
  {6fdef2f5-c727-4687-bbe9-e5bea829670a}, !- Zone Air Inlet Port List
  {92267b71-c6d8-480a-bdee-d060aa039c05}, !- Zone Air Exhaust Port List
  {272a0d32-05d2-4f20-ba0e-dae790767b02}, !- Zone Air Node Name
  {662ef92a-162d-4492-b96b-c6308391eeee}, !- Zone Return Air Port List
  ,                                       !- Primary Daylighting Control Name
  ,                                       !- Fraction of Zone Controlled by Primary Daylighting Control
  ,                                       !- Secondary Daylighting Control Name
  ,                                       !- Fraction of Zone Controlled by Secondary Daylighting Control
  ,                                       !- Illuminance Map Name
  ,                                       !- Group Rendering Name
  {a8a130ba-01bb-483c-bfde-f8db5073b836}, !- Thermostat Name
  No;                                     !- Use Ideal Air Loads

OS:Node,
  {8bd42e49-a98e-46e5-8c19-acb888debba7}, !- Handle
  Node 1,                                 !- Name
  {272a0d32-05d2-4f20-ba0e-dae790767b02}, !- Inlet Port
  ;                                       !- Outlet Port

OS:Connection,
  {272a0d32-05d2-4f20-ba0e-dae790767b02}, !- Handle
  {247342fe-ce3a-4239-9466-2c4f356d511b}, !- Name
  {d1ff738c-8497-4d2b-bf97-2d15a2fe85db}, !- Source Object
  11,                                     !- Outlet Port
  {8bd42e49-a98e-46e5-8c19-acb888debba7}, !- Target Object
  2;                                      !- Inlet Port

OS:PortList,
  {6fdef2f5-c727-4687-bbe9-e5bea829670a}, !- Handle
  {d8dd9624-c455-4c4c-aba9-ba72967e4c2a}, !- Name
  {d1ff738c-8497-4d2b-bf97-2d15a2fe85db}, !- HVAC Component
  {b2dd665c-de75-4f88-828d-e357da6f4438}; !- Port 1

OS:PortList,
  {92267b71-c6d8-480a-bdee-d060aa039c05}, !- Handle
  {ecea2fed-ef29-4a05-bf0f-3d12e8566577}, !- Name
  {d1ff738c-8497-4d2b-bf97-2d15a2fe85db}, !- HVAC Component
  {f8bc06b4-6426-4025-9b1e-f0331683ccb8}; !- Port 1

OS:PortList,
  {662ef92a-162d-4492-b96b-c6308391eeee}, !- Handle
  {39294188-8de5-4f90-964e-1a3b11b27622}, !- Name
  {d1ff738c-8497-4d2b-bf97-2d15a2fe85db}; !- HVAC Component

OS:Sizing:Zone,
  {fc9efec7-d341-4743-9715-406d14df413b}, !- Handle
  {d1ff738c-8497-4d2b-bf97-2d15a2fe85db}, !- Zone or ZoneList Name
  SupplyAirTemperature,                   !- Zone Cooling Design Supply Air Temperature Input Method
  12.7777777777778,                       !- Zone Cooling Design Supply Air Temperature {C}
  11.11,                                  !- Zone Cooling Design Supply Air Temperature Difference {deltaC}
  SupplyAirTemperature,                   !- Zone Heating Design Supply Air Temperature Input Method
  40.0000000000001,                       !- Zone Heating Design Supply Air Temperature {C}
  11.11,                                  !- Zone Heating Design Supply Air Temperature Difference {deltaC}
  0.0085,                                 !- Zone Cooling Design Supply Air Humidity Ratio {kg-H2O/kg-air}
  0.008,                                  !- Zone Heating Design Supply Air Humidity Ratio {kg-H2O/kg-air}
  ,                                       !- Zone Heating Sizing Factor
  ,                                       !- Zone Cooling Sizing Factor
  DesignDay,                              !- Cooling Design Air Flow Method
  ,                                       !- Cooling Design Air Flow Rate {m3/s}
  ,                                       !- Cooling Minimum Air Flow per Zone Floor Area {m3/s-m2}
  ,                                       !- Cooling Minimum Air Flow {m3/s}
  ,                                       !- Cooling Minimum Air Flow Fraction
  DesignDay,                              !- Heating Design Air Flow Method
  ,                                       !- Heating Design Air Flow Rate {m3/s}
  ,                                       !- Heating Maximum Air Flow per Zone Floor Area {m3/s-m2}
  ,                                       !- Heating Maximum Air Flow {m3/s}
  ,                                       !- Heating Maximum Air Flow Fraction
  ,                                       !- Design Zone Air Distribution Effectiveness in Cooling Mode
  ,                                       !- Design Zone Air Distribution Effectiveness in Heating Mode
  No,                                     !- Account for Dedicated Outdoor Air System
  NeutralSupplyAir,                       !- Dedicated Outdoor Air System Control Strategy
  autosize,                               !- Dedicated Outdoor Air Low Setpoint Temperature for Design {C}
  autosize;                               !- Dedicated Outdoor Air High Setpoint Temperature for Design {C}

OS:ZoneHVAC:EquipmentList,
  {61a9e014-59c8-4b11-b9e5-961b4038d475}, !- Handle
  Zone HVAC Equipment List 1,             !- Name
  {d1ff738c-8497-4d2b-bf97-2d15a2fe85db}, !- Thermal Zone
  ,                                       !- Load Distribution Scheme
  {3f5448ae-7260-4382-add4-4fb3b2fa35f6}, !- Zone Equipment 1
  1,                                      !- Zone Equipment Cooling Sequence 1
  1;                                      !- Zone Equipment Heating or No-Load Sequence 1

OS:Space,
  {39671c40-cb64-456f-bc7c-c7f4e745e062}, !- Handle
  living space,                           !- Name
  {f3d2d1a4-4b82-47fe-99a1-52414f48c25f}, !- Space Type Name
  ,                                       !- Default Construction Set Name
  ,                                       !- Default Schedule Set Name
  ,                                       !- Direction of Relative North {deg}
  ,                                       !- X Origin {m}
  ,                                       !- Y Origin {m}
  ,                                       !- Z Origin {m}
  ,                                       !- Building Story Name
  {d1ff738c-8497-4d2b-bf97-2d15a2fe85db}, !- Thermal Zone Name
  ,                                       !- Part of Total Floor Area
  ,                                       !- Design Specification Outdoor Air Object Name
  {b67aac1c-88c2-480a-8c98-0fa4b579c60d}; !- Building Unit Name

OS:Surface,
  {e2d74df3-6922-4ce8-a8e9-c5e900aebec5}, !- Handle
  Surface 1,                              !- Name
  Floor,                                  !- Surface Type
  ,                                       !- Construction Name
  {39671c40-cb64-456f-bc7c-c7f4e745e062}, !- Space Name
  Foundation,                             !- Outside Boundary Condition
  ,                                       !- Outside Boundary Condition Object
  NoSun,                                  !- Sun Exposure
  NoWind,                                 !- Wind Exposure
  ,                                       !- View Factor to Ground
  ,                                       !- Number of Vertices
  0, -12.9315688143396, 0,                !- X,Y,Z Vertex 1 {m}
  0, 0, 0,                                !- X,Y,Z Vertex 2 {m}
  6.46578440716979, 0, 0,                 !- X,Y,Z Vertex 3 {m}
  6.46578440716979, -12.9315688143396, 0; !- X,Y,Z Vertex 4 {m}

OS:Surface,
  {2fb7dd4f-bb59-42a3-91b7-7e43e5cb1e58}, !- Handle
  Surface 2,                              !- Name
  Wall,                                   !- Surface Type
  ,                                       !- Construction Name
  {39671c40-cb64-456f-bc7c-c7f4e745e062}, !- Space Name
  Outdoors,                               !- Outside Boundary Condition
  ,                                       !- Outside Boundary Condition Object
  SunExposed,                             !- Sun Exposure
  WindExposed,                            !- Wind Exposure
  ,                                       !- View Factor to Ground
  ,                                       !- Number of Vertices
  0, 0, 2.4384,                           !- X,Y,Z Vertex 1 {m}
  0, 0, 0,                                !- X,Y,Z Vertex 2 {m}
  0, -12.9315688143396, 0,                !- X,Y,Z Vertex 3 {m}
  0, -12.9315688143396, 2.4384;           !- X,Y,Z Vertex 4 {m}

OS:Surface,
  {adb53c68-f05d-437e-b19a-e0ad3fc882e1}, !- Handle
  Surface 3,                              !- Name
  Wall,                                   !- Surface Type
  ,                                       !- Construction Name
  {39671c40-cb64-456f-bc7c-c7f4e745e062}, !- Space Name
  Outdoors,                               !- Outside Boundary Condition
  ,                                       !- Outside Boundary Condition Object
  SunExposed,                             !- Sun Exposure
  WindExposed,                            !- Wind Exposure
  ,                                       !- View Factor to Ground
  ,                                       !- Number of Vertices
  6.46578440716979, 0, 2.4384,            !- X,Y,Z Vertex 1 {m}
  6.46578440716979, 0, 0,                 !- X,Y,Z Vertex 2 {m}
  0, 0, 0,                                !- X,Y,Z Vertex 3 {m}
  0, 0, 2.4384;                           !- X,Y,Z Vertex 4 {m}

OS:Surface,
  {b7f5eec7-baec-47d2-af77-d9450c8f78aa}, !- Handle
  Surface 4,                              !- Name
  Wall,                                   !- Surface Type
  ,                                       !- Construction Name
  {39671c40-cb64-456f-bc7c-c7f4e745e062}, !- Space Name
  Surface,                                !- Outside Boundary Condition
  {cb406d5b-1c1d-4877-a5d4-9bd4cc185424}, !- Outside Boundary Condition Object
  NoSun,                                  !- Sun Exposure
  NoWind,                                 !- Wind Exposure
  ,                                       !- View Factor to Ground
  ,                                       !- Number of Vertices
  6.46578440716979, -12.9315688143396, 2.4384, !- X,Y,Z Vertex 1 {m}
  6.46578440716979, -12.9315688143396, 0, !- X,Y,Z Vertex 2 {m}
  6.46578440716979, 0, 0,                 !- X,Y,Z Vertex 3 {m}
  6.46578440716979, 0, 2.4384;            !- X,Y,Z Vertex 4 {m}

OS:Surface,
  {99064911-251e-435a-926b-2dfd2da345ea}, !- Handle
  Surface 5,                              !- Name
  Wall,                                   !- Surface Type
  ,                                       !- Construction Name
  {39671c40-cb64-456f-bc7c-c7f4e745e062}, !- Space Name
  Outdoors,                               !- Outside Boundary Condition
  ,                                       !- Outside Boundary Condition Object
  SunExposed,                             !- Sun Exposure
  WindExposed,                            !- Wind Exposure
  ,                                       !- View Factor to Ground
  ,                                       !- Number of Vertices
  0, -12.9315688143396, 2.4384,           !- X,Y,Z Vertex 1 {m}
  0, -12.9315688143396, 0,                !- X,Y,Z Vertex 2 {m}
  6.46578440716979, -12.9315688143396, 0, !- X,Y,Z Vertex 3 {m}
  6.46578440716979, -12.9315688143396, 2.4384; !- X,Y,Z Vertex 4 {m}

OS:Surface,
  {fe070596-af47-4f1e-9525-593ff3d6274c}, !- Handle
  Surface 6,                              !- Name
  RoofCeiling,                            !- Surface Type
  ,                                       !- Construction Name
  {39671c40-cb64-456f-bc7c-c7f4e745e062}, !- Space Name
  Surface,                                !- Outside Boundary Condition
  {4e8c6d67-af9d-4ca8-a13d-58dd16cc86f2}, !- Outside Boundary Condition Object
  NoSun,                                  !- Sun Exposure
  NoWind,                                 !- Wind Exposure
  ,                                       !- View Factor to Ground
  ,                                       !- Number of Vertices
  6.46578440716979, -12.9315688143396, 2.4384, !- X,Y,Z Vertex 1 {m}
  6.46578440716979, 0, 2.4384,            !- X,Y,Z Vertex 2 {m}
  0, 0, 2.4384,                           !- X,Y,Z Vertex 3 {m}
  0, -12.9315688143396, 2.4384;           !- X,Y,Z Vertex 4 {m}

OS:SpaceType,
  {f3d2d1a4-4b82-47fe-99a1-52414f48c25f}, !- Handle
  Space Type 1,                           !- Name
  ,                                       !- Default Construction Set Name
  ,                                       !- Default Schedule Set Name
  ,                                       !- Group Rendering Name
  ,                                       !- Design Specification Outdoor Air Object Name
  ,                                       !- Standards Template
  ,                                       !- Standards Building Type
  living;                                 !- Standards Space Type

OS:ThermalZone,
  {059c390f-61dd-4f83-a95f-edbf1c2a8181}, !- Handle
  living zone|unit 2,                     !- Name
  ,                                       !- Multiplier
  ,                                       !- Ceiling Height {m}
  ,                                       !- Volume {m3}
  ,                                       !- Floor Area {m2}
  ,                                       !- Zone Inside Convection Algorithm
  ,                                       !- Zone Outside Convection Algorithm
  ,                                       !- Zone Conditioning Equipment List Name
  {56a160ec-65fe-45a1-a496-e8ce808ab6a8}, !- Zone Air Inlet Port List
  {886ecd1e-4815-4243-86e4-399407092beb}, !- Zone Air Exhaust Port List
  {ee8a0cea-9891-4f23-84c5-7ca3d9e57c22}, !- Zone Air Node Name
  {e0c7e113-ccd8-4a9e-a999-42e3d1cb37e7}, !- Zone Return Air Port List
  ,                                       !- Primary Daylighting Control Name
  ,                                       !- Fraction of Zone Controlled by Primary Daylighting Control
  ,                                       !- Secondary Daylighting Control Name
  ,                                       !- Fraction of Zone Controlled by Secondary Daylighting Control
  ,                                       !- Illuminance Map Name
  ,                                       !- Group Rendering Name
  {6c96f75f-6e82-4ddf-a1b9-fa0b8ed4bfca}, !- Thermostat Name
  No;                                     !- Use Ideal Air Loads

OS:Node,
  {7e0545a9-9d47-4ef2-a0e0-1ae88f0f2294}, !- Handle
  Node 2,                                 !- Name
  {ee8a0cea-9891-4f23-84c5-7ca3d9e57c22}, !- Inlet Port
  ;                                       !- Outlet Port

OS:Connection,
  {ee8a0cea-9891-4f23-84c5-7ca3d9e57c22}, !- Handle
  {deeb7d07-1778-4aba-9fbd-e75ade9a7db5}, !- Name
  {059c390f-61dd-4f83-a95f-edbf1c2a8181}, !- Source Object
  11,                                     !- Outlet Port
  {7e0545a9-9d47-4ef2-a0e0-1ae88f0f2294}, !- Target Object
  2;                                      !- Inlet Port

OS:PortList,
  {56a160ec-65fe-45a1-a496-e8ce808ab6a8}, !- Handle
  {e91c2b0b-704b-4084-a04b-6a461fb5ae09}, !- Name
  {059c390f-61dd-4f83-a95f-edbf1c2a8181}, !- HVAC Component
  {64faf334-5b5d-48e5-a8b3-ebe96c02f2b0}; !- Port 1

OS:PortList,
  {886ecd1e-4815-4243-86e4-399407092beb}, !- Handle
  {8c3b1742-62fb-4a06-b4d1-1abfda2b0763}, !- Name
  {059c390f-61dd-4f83-a95f-edbf1c2a8181}, !- HVAC Component
  {5c1630a8-cb7b-45b9-8f2f-c35a89281f90}; !- Port 1

OS:PortList,
  {e0c7e113-ccd8-4a9e-a999-42e3d1cb37e7}, !- Handle
  {2958aeaf-2787-46a3-bc10-c7747c4a548b}, !- Name
  {059c390f-61dd-4f83-a95f-edbf1c2a8181}; !- HVAC Component

OS:Sizing:Zone,
  {e0668903-07e4-457c-9009-0d1684490bc5}, !- Handle
  {059c390f-61dd-4f83-a95f-edbf1c2a8181}, !- Zone or ZoneList Name
  SupplyAirTemperature,                   !- Zone Cooling Design Supply Air Temperature Input Method
  12.7777777777778,                       !- Zone Cooling Design Supply Air Temperature {C}
  11.11,                                  !- Zone Cooling Design Supply Air Temperature Difference {deltaC}
  SupplyAirTemperature,                   !- Zone Heating Design Supply Air Temperature Input Method
  40.0000000000001,                       !- Zone Heating Design Supply Air Temperature {C}
  11.11,                                  !- Zone Heating Design Supply Air Temperature Difference {deltaC}
  0.0085,                                 !- Zone Cooling Design Supply Air Humidity Ratio {kg-H2O/kg-air}
  0.008,                                  !- Zone Heating Design Supply Air Humidity Ratio {kg-H2O/kg-air}
  ,                                       !- Zone Heating Sizing Factor
  ,                                       !- Zone Cooling Sizing Factor
  DesignDay,                              !- Cooling Design Air Flow Method
  ,                                       !- Cooling Design Air Flow Rate {m3/s}
  ,                                       !- Cooling Minimum Air Flow per Zone Floor Area {m3/s-m2}
  ,                                       !- Cooling Minimum Air Flow {m3/s}
  ,                                       !- Cooling Minimum Air Flow Fraction
  DesignDay,                              !- Heating Design Air Flow Method
  ,                                       !- Heating Design Air Flow Rate {m3/s}
  ,                                       !- Heating Maximum Air Flow per Zone Floor Area {m3/s-m2}
  ,                                       !- Heating Maximum Air Flow {m3/s}
  ,                                       !- Heating Maximum Air Flow Fraction
  ,                                       !- Design Zone Air Distribution Effectiveness in Cooling Mode
  ,                                       !- Design Zone Air Distribution Effectiveness in Heating Mode
  No,                                     !- Account for Dedicated Outdoor Air System
  NeutralSupplyAir,                       !- Dedicated Outdoor Air System Control Strategy
  autosize,                               !- Dedicated Outdoor Air Low Setpoint Temperature for Design {C}
  autosize;                               !- Dedicated Outdoor Air High Setpoint Temperature for Design {C}

OS:ZoneHVAC:EquipmentList,
  {cea5b6cb-f1c8-4678-afc6-45d4025eed52}, !- Handle
  Zone HVAC Equipment List 2,             !- Name
  {059c390f-61dd-4f83-a95f-edbf1c2a8181}, !- Thermal Zone
  ,                                       !- Load Distribution Scheme
  {58587b2c-04fd-449c-bb92-5939cfd288cd}, !- Zone Equipment 1
  1,                                      !- Zone Equipment Cooling Sequence 1
  1;                                      !- Zone Equipment Heating or No-Load Sequence 1

OS:Space,
  {340d6eeb-29c4-4b12-838e-4ad828fa7216}, !- Handle
  living space|unit 2|story 1,            !- Name
  {f3d2d1a4-4b82-47fe-99a1-52414f48c25f}, !- Space Type Name
  ,                                       !- Default Construction Set Name
  ,                                       !- Default Schedule Set Name
  -0,                                     !- Direction of Relative North {deg}
  0,                                      !- X Origin {m}
  0,                                      !- Y Origin {m}
  0,                                      !- Z Origin {m}
  ,                                       !- Building Story Name
  {059c390f-61dd-4f83-a95f-edbf1c2a8181}, !- Thermal Zone Name
  ,                                       !- Part of Total Floor Area
  ,                                       !- Design Specification Outdoor Air Object Name
  {ecb25038-f68f-40ff-8b4b-16918aa37a16}; !- Building Unit Name

OS:Surface,
  {cb406d5b-1c1d-4877-a5d4-9bd4cc185424}, !- Handle
  Surface 12,                             !- Name
  Wall,                                   !- Surface Type
  ,                                       !- Construction Name
  {340d6eeb-29c4-4b12-838e-4ad828fa7216}, !- Space Name
  Surface,                                !- Outside Boundary Condition
  {b7f5eec7-baec-47d2-af77-d9450c8f78aa}, !- Outside Boundary Condition Object
  NoSun,                                  !- Sun Exposure
  NoWind,                                 !- Wind Exposure
  ,                                       !- View Factor to Ground
  ,                                       !- Number of Vertices
  6.46578440716979, 0, 2.4384,            !- X,Y,Z Vertex 1 {m}
  6.46578440716979, 0, 0,                 !- X,Y,Z Vertex 2 {m}
  6.46578440716979, -12.9315688143396, 0, !- X,Y,Z Vertex 3 {m}
  6.46578440716979, -12.9315688143396, 2.4384; !- X,Y,Z Vertex 4 {m}

OS:Surface,
  {9d57d717-99fb-4e4e-b12c-33f5bf08528c}, !- Handle
  Surface 13,                             !- Name
  Wall,                                   !- Surface Type
  ,                                       !- Construction Name
  {340d6eeb-29c4-4b12-838e-4ad828fa7216}, !- Space Name
  Outdoors,                               !- Outside Boundary Condition
  ,                                       !- Outside Boundary Condition Object
  SunExposed,                             !- Sun Exposure
  WindExposed,                            !- Wind Exposure
  ,                                       !- View Factor to Ground
  ,                                       !- Number of Vertices
  6.46578440716979, -12.9315688143396, 2.4384, !- X,Y,Z Vertex 1 {m}
  6.46578440716979, -12.9315688143396, 0, !- X,Y,Z Vertex 2 {m}
  12.9315688143396, -12.9315688143396, 0, !- X,Y,Z Vertex 3 {m}
  12.9315688143396, -12.9315688143396, 2.4384; !- X,Y,Z Vertex 4 {m}

OS:Surface,
  {a3bc2e5b-00cd-408e-adde-22768a2599c8}, !- Handle
  Surface 14,                             !- Name
  RoofCeiling,                            !- Surface Type
  ,                                       !- Construction Name
  {340d6eeb-29c4-4b12-838e-4ad828fa7216}, !- Space Name
  Surface,                                !- Outside Boundary Condition
  {f1911d55-3886-4089-9ea9-89da264cdcf4}, !- Outside Boundary Condition Object
  NoSun,                                  !- Sun Exposure
  NoWind,                                 !- Wind Exposure
  ,                                       !- View Factor to Ground
  ,                                       !- Number of Vertices
  12.9315688143396, -12.9315688143396, 2.4384, !- X,Y,Z Vertex 1 {m}
  12.9315688143396, 0, 2.4384,            !- X,Y,Z Vertex 2 {m}
  6.46578440716979, 0, 2.4384,            !- X,Y,Z Vertex 3 {m}
  6.46578440716979, -12.9315688143396, 2.4384; !- X,Y,Z Vertex 4 {m}

OS:Surface,
  {5cc36ede-6507-465d-a347-b53f8a8f211c}, !- Handle
  Surface 15,                             !- Name
  Wall,                                   !- Surface Type
  ,                                       !- Construction Name
  {340d6eeb-29c4-4b12-838e-4ad828fa7216}, !- Space Name
  Outdoors,                               !- Outside Boundary Condition
  ,                                       !- Outside Boundary Condition Object
  SunExposed,                             !- Sun Exposure
  WindExposed,                            !- Wind Exposure
  ,                                       !- View Factor to Ground
  ,                                       !- Number of Vertices
  12.9315688143396, 0, 2.4384,            !- X,Y,Z Vertex 1 {m}
  12.9315688143396, 0, 0,                 !- X,Y,Z Vertex 2 {m}
  6.46578440716979, 0, 0,                 !- X,Y,Z Vertex 3 {m}
  6.46578440716979, 0, 2.4384;            !- X,Y,Z Vertex 4 {m}

OS:Surface,
  {5dca98e9-547d-4ecd-b186-46d2e635cdda}, !- Handle
  Surface 16,                             !- Name
  Floor,                                  !- Surface Type
  ,                                       !- Construction Name
  {340d6eeb-29c4-4b12-838e-4ad828fa7216}, !- Space Name
  Foundation,                             !- Outside Boundary Condition
  ,                                       !- Outside Boundary Condition Object
  NoSun,                                  !- Sun Exposure
  NoWind,                                 !- Wind Exposure
  ,                                       !- View Factor to Ground
  ,                                       !- Number of Vertices
  6.46578440716979, -12.9315688143396, 0, !- X,Y,Z Vertex 1 {m}
  6.46578440716979, 0, 0,                 !- X,Y,Z Vertex 2 {m}
  12.9315688143396, 0, 0,                 !- X,Y,Z Vertex 3 {m}
  12.9315688143396, -12.9315688143396, 0; !- X,Y,Z Vertex 4 {m}

OS:Surface,
  {20811a7b-2a44-4863-91c4-ba3bad1242d3}, !- Handle
  Surface 17,                             !- Name
  Wall,                                   !- Surface Type
  ,                                       !- Construction Name
  {340d6eeb-29c4-4b12-838e-4ad828fa7216}, !- Space Name
  Surface,                                !- Outside Boundary Condition
  {9d4d455b-19e5-482e-8e9c-2586f06ec155}, !- Outside Boundary Condition Object
  NoSun,                                  !- Sun Exposure
  NoWind,                                 !- Wind Exposure