!- NOTE: Auto-generated from /test/osw_files/SFA_4units_1story_UB_UA_3Beds_2Baths_Denver_WHTank_ClothesWasher.osw

OS:Version,
  {f447a663-d4c9-442c-a05e-450e894c4f58}, !- Handle
  2.8.1;                                  !- Version Identifier

OS:SimulationControl,
  {754d7fb9-ae46-448f-8bbe-b7efd5ef1522}, !- Handle
  ,                                       !- Do Zone Sizing Calculation
  ,                                       !- Do System Sizing Calculation
  ,                                       !- Do Plant Sizing Calculation
  No;                                     !- Run Simulation for Sizing Periods

OS:Timestep,
  {6a11c685-c45f-4088-8dc8-32b517d1b7d0}, !- Handle
  6;                                      !- Number of Timesteps per Hour

OS:ShadowCalculation,
  {b91d93ca-8b2d-4f30-8ec1-568db975b952}, !- Handle
  20,                                     !- Calculation Frequency
  200;                                    !- Maximum Figures in Shadow Overlap Calculations

OS:SurfaceConvectionAlgorithm:Outside,
  {a1fd6312-d59b-4cdb-bb59-9d68381be2ef}, !- Handle
  DOE-2;                                  !- Algorithm

OS:SurfaceConvectionAlgorithm:Inside,
  {531c4884-109c-4777-af5b-b495a53955c4}, !- Handle
  TARP;                                   !- Algorithm

OS:ZoneCapacitanceMultiplier:ResearchSpecial,
  {c28c7dd9-1092-4c20-b763-e466ed42fa89}, !- Handle
  ,                                       !- Temperature Capacity Multiplier
  15,                                     !- Humidity Capacity Multiplier
  ;                                       !- Carbon Dioxide Capacity Multiplier

OS:RunPeriod,
  {0b5bd164-65d4-4ea4-b2cc-c8b4bb557ae8}, !- Handle
  Run Period 1,                           !- Name
  1,                                      !- Begin Month
  1,                                      !- Begin Day of Month
  12,                                     !- End Month
  31,                                     !- End Day of Month
  ,                                       !- Use Weather File Holidays and Special Days
  ,                                       !- Use Weather File Daylight Saving Period
  ,                                       !- Apply Weekend Holiday Rule
  ,                                       !- Use Weather File Rain Indicators
  ,                                       !- Use Weather File Snow Indicators
  ;                                       !- Number of Times Runperiod to be Repeated

OS:YearDescription,
  {3e8b1ac4-6dff-4d30-84ae-03f44826ea6d}, !- Handle
  2007,                                   !- Calendar Year
  ,                                       !- Day of Week for Start Day
  ;                                       !- Is Leap Year

OS:ThermalZone,
  {20e87192-77fb-4bf5-b7bf-01391a2cfab7}, !- Handle
  living zone,                            !- Name
  ,                                       !- Multiplier
  ,                                       !- Ceiling Height {m}
  ,                                       !- Volume {m3}
  ,                                       !- Floor Area {m2}
  ,                                       !- Zone Inside Convection Algorithm
  ,                                       !- Zone Outside Convection Algorithm
  ,                                       !- Zone Conditioning Equipment List Name
  {fc53bf40-f780-445b-9e87-36528a71fde0}, !- Zone Air Inlet Port List
  {a73c1c58-f399-41c2-95cc-ecb893c3c06a}, !- Zone Air Exhaust Port List
  {8785fb38-57da-45e3-9af9-0a838cda92d2}, !- Zone Air Node Name
  {0da794a3-2510-4d63-8148-0ff0e173c79e}, !- Zone Return Air Port List
  ,                                       !- Primary Daylighting Control Name
  ,                                       !- Fraction of Zone Controlled by Primary Daylighting Control
  ,                                       !- Secondary Daylighting Control Name
  ,                                       !- Fraction of Zone Controlled by Secondary Daylighting Control
  ,                                       !- Illuminance Map Name
  ,                                       !- Group Rendering Name
  ,                                       !- Thermostat Name
  No;                                     !- Use Ideal Air Loads

OS:Node,
  {9d4153d2-5332-442b-9387-dac683a10010}, !- Handle
  Node 1,                                 !- Name
  {8785fb38-57da-45e3-9af9-0a838cda92d2}, !- Inlet Port
  ;                                       !- Outlet Port

OS:Connection,
  {8785fb38-57da-45e3-9af9-0a838cda92d2}, !- Handle
  {c8497b73-2f10-42d4-a46b-5bfadbb17234}, !- Name
  {20e87192-77fb-4bf5-b7bf-01391a2cfab7}, !- Source Object
  11,                                     !- Outlet Port
  {9d4153d2-5332-442b-9387-dac683a10010}, !- Target Object
  2;                                      !- Inlet Port

OS:PortList,
  {fc53bf40-f780-445b-9e87-36528a71fde0}, !- Handle
  {f5d6acf0-6970-4904-b90a-aff4973d129b}, !- Name
  {20e87192-77fb-4bf5-b7bf-01391a2cfab7}; !- HVAC Component

OS:PortList,
  {a73c1c58-f399-41c2-95cc-ecb893c3c06a}, !- Handle
  {12796874-5784-4ca2-aa09-615ba2fb0b86}, !- Name
  {20e87192-77fb-4bf5-b7bf-01391a2cfab7}; !- HVAC Component

OS:PortList,
  {0da794a3-2510-4d63-8148-0ff0e173c79e}, !- Handle
  {ae16867a-0eb9-49ab-b3c5-7b5058f7b85a}, !- Name
  {20e87192-77fb-4bf5-b7bf-01391a2cfab7}; !- HVAC Component

OS:Sizing:Zone,
  {4314c229-6c5f-4f85-acbf-3310d4d6379e}, !- Handle
  {20e87192-77fb-4bf5-b7bf-01391a2cfab7}, !- Zone or ZoneList Name
  SupplyAirTemperature,                   !- Zone Cooling Design Supply Air Temperature Input Method
  14,                                     !- Zone Cooling Design Supply Air Temperature {C}
  11.11,                                  !- Zone Cooling Design Supply Air Temperature Difference {deltaC}
  SupplyAirTemperature,                   !- Zone Heating Design Supply Air Temperature Input Method
  40,                                     !- Zone Heating Design Supply Air Temperature {C}
  11.11,                                  !- Zone Heating Design Supply Air Temperature Difference {deltaC}
  0.0085,                                 !- Zone Cooling Design Supply Air Humidity Ratio {kg-H2O/kg-air}
  0.008,                                  !- Zone Heating Design Supply Air Humidity Ratio {kg-H2O/kg-air}
  ,                                       !- Zone Heating Sizing Factor
  ,                                       !- Zone Cooling Sizing Factor
  DesignDay,                              !- Cooling Design Air Flow Method
  ,                                       !- Cooling Design Air Flow Rate {m3/s}
  ,                                       !- Cooling Minimum Air Flow per Zone Floor Area {m3/s-m2}
  ,                                       !- Cooling Minimum Air Flow {m3/s}
  ,                                       !- Cooling Minimum Air Flow Fraction
  DesignDay,                              !- Heating Design Air Flow Method
  ,                                       !- Heating Design Air Flow Rate {m3/s}
  ,                                       !- Heating Maximum Air Flow per Zone Floor Area {m3/s-m2}
  ,                                       !- Heating Maximum Air Flow {m3/s}
  ,                                       !- Heating Maximum Air Flow Fraction
  ,                                       !- Design Zone Air Distribution Effectiveness in Cooling Mode
  ,                                       !- Design Zone Air Distribution Effectiveness in Heating Mode
  No,                                     !- Account for Dedicated Outdoor Air System
  NeutralSupplyAir,                       !- Dedicated Outdoor Air System Control Strategy
  autosize,                               !- Dedicated Outdoor Air Low Setpoint Temperature for Design {C}
  autosize;                               !- Dedicated Outdoor Air High Setpoint Temperature for Design {C}

OS:ZoneHVAC:EquipmentList,
  {420c18aa-2d37-45cb-a56b-15186537e58f}, !- Handle
  Zone HVAC Equipment List 1,             !- Name
  {20e87192-77fb-4bf5-b7bf-01391a2cfab7}; !- Thermal Zone

OS:Space,
  {aaf30fb3-6c26-43df-938f-9d9326cca1fc}, !- Handle
  living space,                           !- Name
  {0d273b9a-3974-4971-8968-2eafa3013cf1}, !- Space Type Name
  ,                                       !- Default Construction Set Name
  ,                                       !- Default Schedule Set Name
  ,                                       !- Direction of Relative North {deg}
  ,                                       !- X Origin {m}
  ,                                       !- Y Origin {m}
  ,                                       !- Z Origin {m}
  ,                                       !- Building Story Name
  {20e87192-77fb-4bf5-b7bf-01391a2cfab7}, !- Thermal Zone Name
  ,                                       !- Part of Total Floor Area
  ,                                       !- Design Specification Outdoor Air Object Name
  {d2393f05-0e2c-40f0-a602-ad5fbe3da2ee}; !- Building Unit Name

OS:Surface,
  {d787abde-e032-4701-862c-e722d0fdf971}, !- Handle
  Surface 1,                              !- Name
  Floor,                                  !- Surface Type
  ,                                       !- Construction Name
  {aaf30fb3-6c26-43df-938f-9d9326cca1fc}, !- Space Name
  Surface,                                !- Outside Boundary Condition
  {b5757b86-8d23-4469-aaf9-347ff593e1ff}, !- Outside Boundary Condition Object
  NoSun,                                  !- Sun Exposure
  NoWind,                                 !- Wind Exposure
  ,                                       !- View Factor to Ground
  ,                                       !- Number of Vertices
  0, -12.9315688143396, 0,                !- X,Y,Z Vertex 1 {m}
  0, 0, 0,                                !- X,Y,Z Vertex 2 {m}
  6.46578440716979, 0, 0,                 !- X,Y,Z Vertex 3 {m}
  6.46578440716979, -12.9315688143396, 0; !- X,Y,Z Vertex 4 {m}

OS:Surface,
  {804cb54c-5ed5-4d3c-a3f1-471a10f9d828}, !- Handle
  Surface 2,                              !- Name
  Wall,                                   !- Surface Type
  ,                                       !- Construction Name
  {aaf30fb3-6c26-43df-938f-9d9326cca1fc}, !- Space Name
  Outdoors,                               !- Outside Boundary Condition
  ,                                       !- Outside Boundary Condition Object
  SunExposed,                             !- Sun Exposure
  WindExposed,                            !- Wind Exposure
  ,                                       !- View Factor to Ground
  ,                                       !- Number of Vertices
  0, 0, 2.4384,                           !- X,Y,Z Vertex 1 {m}
  0, 0, 0,                                !- X,Y,Z Vertex 2 {m}
  0, -12.9315688143396, 0,                !- X,Y,Z Vertex 3 {m}
  0, -12.9315688143396, 2.4384;           !- X,Y,Z Vertex 4 {m}

OS:Surface,
  {5e5fee24-599a-4c1c-892b-3488a2eb2e80}, !- Handle
  Surface 3,                              !- Name
  Wall,                                   !- Surface Type
  ,                                       !- Construction Name
  {aaf30fb3-6c26-43df-938f-9d9326cca1fc}, !- Space Name
  Outdoors,                               !- Outside Boundary Condition
  ,                                       !- Outside Boundary Condition Object
  SunExposed,                             !- Sun Exposure
  WindExposed,                            !- Wind Exposure
  ,                                       !- View Factor to Ground
  ,                                       !- Number of Vertices
  6.46578440716979, 0, 2.4384,            !- X,Y,Z Vertex 1 {m}
  6.46578440716979, 0, 0,                 !- X,Y,Z Vertex 2 {m}
  0, 0, 0,                                !- X,Y,Z Vertex 3 {m}
  0, 0, 2.4384;                           !- X,Y,Z Vertex 4 {m}

OS:Surface,
  {43b45c6e-d2d8-4a80-92c1-de2d64ff71c8}, !- Handle
  Surface 4,                              !- Name
  Wall,                                   !- Surface Type
  ,                                       !- Construction Name
  {aaf30fb3-6c26-43df-938f-9d9326cca1fc}, !- Space Name
  Surface,                                !- Outside Boundary Condition
  {aaeea778-391f-4ee1-b7b4-f267c96a9980}, !- Outside Boundary Condition Object
  NoSun,                                  !- Sun Exposure
  NoWind,                                 !- Wind Exposure
  ,                                       !- View Factor to Ground
  ,                                       !- Number of Vertices
  6.46578440716979, -12.9315688143396, 2.4384, !- X,Y,Z Vertex 1 {m}
  6.46578440716979, -12.9315688143396, 0, !- X,Y,Z Vertex 2 {m}
  6.46578440716979, 0, 0,                 !- X,Y,Z Vertex 3 {m}
  6.46578440716979, 0, 2.4384;            !- X,Y,Z Vertex 4 {m}

OS:Surface,
  {2a88e3f6-9a9f-4103-84b3-77a319f64703}, !- Handle
  Surface 5,                              !- Name
  Wall,                                   !- Surface Type
  ,                                       !- Construction Name
  {aaf30fb3-6c26-43df-938f-9d9326cca1fc}, !- Space Name
  Outdoors,                               !- Outside Boundary Condition
  ,                                       !- Outside Boundary Condition Object
  SunExposed,                             !- Sun Exposure
  WindExposed,                            !- Wind Exposure
  ,                                       !- View Factor to Ground
  ,                                       !- Number of Vertices
  0, -12.9315688143396, 2.4384,           !- X,Y,Z Vertex 1 {m}
  0, -12.9315688143396, 0,                !- X,Y,Z Vertex 2 {m}
  6.46578440716979, -12.9315688143396, 0, !- X,Y,Z Vertex 3 {m}
  6.46578440716979, -12.9315688143396, 2.4384; !- X,Y,Z Vertex 4 {m}

OS:Surface,
  {9bdc2380-d1cb-4aa4-a0ec-511a10ad3de3}, !- Handle
  Surface 6,                              !- Name
  RoofCeiling,                            !- Surface Type
  ,                                       !- Construction Name
  {aaf30fb3-6c26-43df-938f-9d9326cca1fc}, !- Space Name
  Surface,                                !- Outside Boundary Condition
  {29e9aeb4-1ff9-4e2c-9178-ca657c921cb7}, !- Outside Boundary Condition Object
  NoSun,                                  !- Sun Exposure
  NoWind,                                 !- Wind Exposure
  ,                                       !- View Factor to Ground
  ,                                       !- Number of Vertices
  6.46578440716979, -12.9315688143396, 2.4384, !- X,Y,Z Vertex 1 {m}
  6.46578440716979, 0, 2.4384,            !- X,Y,Z Vertex 2 {m}
  0, 0, 2.4384,                           !- X,Y,Z Vertex 3 {m}
  0, -12.9315688143396, 2.4384;           !- X,Y,Z Vertex 4 {m}

OS:SpaceType,
  {0d273b9a-3974-4971-8968-2eafa3013cf1}, !- Handle
  Space Type 1,                           !- Name
  ,                                       !- Default Construction Set Name
  ,                                       !- Default Schedule Set Name
  ,                                       !- Group Rendering Name
  ,                                       !- Design Specification Outdoor Air Object Name
  ,                                       !- Standards Template
  ,                                       !- Standards Building Type
  living;                                 !- Standards Space Type

OS:ThermalZone,
  {9e05f122-987f-4907-a53b-0277dd056a93}, !- Handle
  living zone|unit 2,                     !- Name
  ,                                       !- Multiplier
  ,                                       !- Ceiling Height {m}
  ,                                       !- Volume {m3}
  ,                                       !- Floor Area {m2}
  ,                                       !- Zone Inside Convection Algorithm
  ,                                       !- Zone Outside Convection Algorithm
  ,                                       !- Zone Conditioning Equipment List Name
  {5b4f5b10-a5c8-4494-bfe3-de18bb28b72b}, !- Zone Air Inlet Port List
  {53ab38ff-9d30-4815-96b8-d7998c428ccc}, !- Zone Air Exhaust Port List
  {5ce25a28-6b68-4fff-9336-9a2d9966b991}, !- Zone Air Node Name
  {16e12779-48d2-4cad-8b11-df3183cccd80}, !- Zone Return Air Port List
  ,                                       !- Primary Daylighting Control Name
  ,                                       !- Fraction of Zone Controlled by Primary Daylighting Control
  ,                                       !- Secondary Daylighting Control Name
  ,                                       !- Fraction of Zone Controlled by Secondary Daylighting Control
  ,                                       !- Illuminance Map Name
  ,                                       !- Group Rendering Name
  ,                                       !- Thermostat Name
  No;                                     !- Use Ideal Air Loads

OS:Node,
  {dfaa1d4e-1bdf-4bde-aca3-20add5ec495e}, !- Handle
  Node 2,                                 !- Name
  {5ce25a28-6b68-4fff-9336-9a2d9966b991}, !- Inlet Port
  ;                                       !- Outlet Port

OS:Connection,
  {5ce25a28-6b68-4fff-9336-9a2d9966b991}, !- Handle
  {20a9a8b4-296b-4b9e-9a9a-3f57074f8bb6}, !- Name
  {9e05f122-987f-4907-a53b-0277dd056a93}, !- Source Object
  11,                                     !- Outlet Port
  {dfaa1d4e-1bdf-4bde-aca3-20add5ec495e}, !- Target Object
  2;                                      !- Inlet Port

OS:PortList,
  {5b4f5b10-a5c8-4494-bfe3-de18bb28b72b}, !- Handle
  {0acbffcc-51ab-4550-a496-7a4f6663bd59}, !- Name
  {9e05f122-987f-4907-a53b-0277dd056a93}; !- HVAC Component

OS:PortList,
  {53ab38ff-9d30-4815-96b8-d7998c428ccc}, !- Handle
  {be6eaa1b-1a80-4272-96c6-8550d251ea0c}, !- Name
  {9e05f122-987f-4907-a53b-0277dd056a93}; !- HVAC Component

OS:PortList,
  {16e12779-48d2-4cad-8b11-df3183cccd80}, !- Handle
  {d7c82385-e84e-4883-94c7-e09157edfe55}, !- Name
  {9e05f122-987f-4907-a53b-0277dd056a93}; !- HVAC Component

OS:Sizing:Zone,
  {9fff7139-662d-4614-85ba-3ea0b59d7403}, !- Handle
  {9e05f122-987f-4907-a53b-0277dd056a93}, !- Zone or ZoneList Name
  SupplyAirTemperature,                   !- Zone Cooling Design Supply Air Temperature Input Method
  14,                                     !- Zone Cooling Design Supply Air Temperature {C}
  11.11,                                  !- Zone Cooling Design Supply Air Temperature Difference {deltaC}
  SupplyAirTemperature,                   !- Zone Heating Design Supply Air Temperature Input Method
  40,                                     !- Zone Heating Design Supply Air Temperature {C}
  11.11,                                  !- Zone Heating Design Supply Air Temperature Difference {deltaC}
  0.0085,                                 !- Zone Cooling Design Supply Air Humidity Ratio {kg-H2O/kg-air}
  0.008,                                  !- Zone Heating Design Supply Air Humidity Ratio {kg-H2O/kg-air}
  ,                                       !- Zone Heating Sizing Factor
  ,                                       !- Zone Cooling Sizing Factor
  DesignDay,                              !- Cooling Design Air Flow Method
  ,                                       !- Cooling Design Air Flow Rate {m3/s}
  ,                                       !- Cooling Minimum Air Flow per Zone Floor Area {m3/s-m2}
  ,                                       !- Cooling Minimum Air Flow {m3/s}
  ,                                       !- Cooling Minimum Air Flow Fraction
  DesignDay,                              !- Heating Design Air Flow Method
  ,                                       !- Heating Design Air Flow Rate {m3/s}
  ,                                       !- Heating Maximum Air Flow per Zone Floor Area {m3/s-m2}
  ,                                       !- Heating Maximum Air Flow {m3/s}
  ,                                       !- Heating Maximum Air Flow Fraction
  ,                                       !- Design Zone Air Distribution Effectiveness in Cooling Mode
  ,                                       !- Design Zone Air Distribution Effectiveness in Heating Mode
  No,                                     !- Account for Dedicated Outdoor Air System
  NeutralSupplyAir,                       !- Dedicated Outdoor Air System Control Strategy
  autosize,                               !- Dedicated Outdoor Air Low Setpoint Temperature for Design {C}
  autosize;                               !- Dedicated Outdoor Air High Setpoint Temperature for Design {C}

OS:ZoneHVAC:EquipmentList,
  {e3be9470-73b3-4cf7-9dd3-43fe23d5ba52}, !- Handle
  Zone HVAC Equipment List 2,             !- Name
  {9e05f122-987f-4907-a53b-0277dd056a93}; !- Thermal Zone

OS:Space,
  {125cbe35-41ae-499e-9e6e-f22b8cfee27b}, !- Handle
  living space|unit 2|story 1,            !- Name
  {0d273b9a-3974-4971-8968-2eafa3013cf1}, !- Space Type Name
  ,                                       !- Default Construction Set Name
  ,                                       !- Default Schedule Set Name
  -0,                                     !- Direction of Relative North {deg}
  0,                                      !- X Origin {m}
  0,                                      !- Y Origin {m}
  0,                                      !- Z Origin {m}
  ,                                       !- Building Story Name
  {9e05f122-987f-4907-a53b-0277dd056a93}, !- Thermal Zone Name
  ,                                       !- Part of Total Floor Area
  ,                                       !- Design Specification Outdoor Air Object Name
  {b9a88d90-5468-4af9-b0e0-347784931cf6}; !- Building Unit Name

OS:Surface,
  {a16a1fe1-c812-480c-b2f4-285e997fe05c}, !- Handle
  Surface 12,                             !- Name
  Wall,                                   !- Surface Type
  ,                                       !- Construction Name
  {125cbe35-41ae-499e-9e6e-f22b8cfee27b}, !- Space Name
  Surface,                                !- Outside Boundary Condition
  {982827ad-73a4-4098-b573-25acf625549c}, !- Outside Boundary Condition Object
  NoSun,                                  !- Sun Exposure
  NoWind,                                 !- Wind Exposure
  ,                                       !- View Factor to Ground
  ,                                       !- Number of Vertices
  12.9315688143396, -12.9315688143396, 2.4384, !- X,Y,Z Vertex 1 {m}
  12.9315688143396, -12.9315688143396, 0, !- X,Y,Z Vertex 2 {m}
  12.9315688143396, 0, 0,                 !- X,Y,Z Vertex 3 {m}
  12.9315688143396, 0, 2.4384;            !- X,Y,Z Vertex 4 {m}

OS:Surface,
  {1104e621-3844-4b9c-a10e-c692884fb88d}, !- Handle
  Surface 13,                             !- Name
  Floor,                                  !- Surface Type
  ,                                       !- Construction Name
  {125cbe35-41ae-499e-9e6e-f22b8cfee27b}, !- Space Name
  Surface,                                !- Outside Boundary Condition
  {4d730814-3421-446f-a386-bf965932bebd}, !- Outside Boundary Condition Object
  NoSun,                                  !- Sun Exposure
  NoWind,                                 !- Wind Exposure
  ,                                       !- View Factor to Ground
  ,                                       !- Number of Vertices
  6.46578440716979, -12.9315688143396, 0, !- X,Y,Z Vertex 1 {m}
  6.46578440716979, 0, 0,                 !- X,Y,Z Vertex 2 {m}
  12.9315688143396, 0, 0,                 !- X,Y,Z Vertex 3 {m}
  12.9315688143396, -12.9315688143396, 0; !- X,Y,Z Vertex 4 {m}

OS:Surface,
  {aaeea778-391f-4ee1-b7b4-f267c96a9980}, !- Handle
  Surface 14,                             !- Name
  Wall,                                   !- Surface Type
  ,                                       !- Construction Name
  {125cbe35-41ae-499e-9e6e-f22b8cfee27b}, !- Space Name
  Surface,                                !- Outside Boundary Condition
  {43b45c6e-d2d8-4a80-92c1-de2d64ff71c8}, !- Outside Boundary Condition Object
  NoSun,                                  !- Sun Exposure
  NoWind,                                 !- Wind Exposure
  ,                                       !- View Factor to Ground
  ,                                       !- Number of Vertices
  6.46578440716979, 0, 2.4384,            !- X,Y,Z Vertex 1 {m}
  6.46578440716979, 0, 0,                 !- X,Y,Z Vertex 2 {m}
  6.46578440716979, -12.9315688143396, 0, !- X,Y,Z Vertex 3 {m}
  6.46578440716979, -12.9315688143396, 2.4384; !- X,Y,Z Vertex 4 {m}

OS:Surface,
  {c7f9d852-f2c4-4c93-a5b0-db3565154f5a}, !- Handle
  Surface 15,                             !- Name
  Wall,                                   !- Surface Type
  ,                                       !- Construction Name
  {125cbe35-41ae-499e-9e6e-f22b8cfee27b}, !- Space Name
  Outdoors,                               !- Outside Boundary Condition
  ,                                       !- Outside Boundary Condition Object
  SunExposed,                             !- Sun Exposure
  WindExposed,                            !- Wind Exposure
  ,                                       !- View Factor to Ground
  ,                                       !- Number of Vertices
  12.9315688143396, 0, 2.4384,            !- X,Y,Z Vertex 1 {m}
  12.9315688143396, 0, 0,                 !- X,Y,Z Vertex 2 {m}
  6.46578440716979, 0, 0,                 !- X,Y,Z Vertex 3 {m}
  6.46578440716979, 0, 2.4384;            !- X,Y,Z Vertex 4 {m}

OS:Surface,
  {d8cc5e81-2bfa-43aa-935b-aeac52c693cf}, !- Handle
  Surface 16,                             !- Name
  RoofCeiling,                            !- Surface Type
  ,                                       !- Construction Name
  {125cbe35-41ae-499e-9e6e-f22b8cfee27b}, !- Space Name
  Surface,                                !- Outside Boundary Condition
  {5e7a9c1b-2099-4433-9139-dffd3d06e6fc}, !- Outside Boundary Condition Object
  NoSun,                                  !- Sun Exposure
  NoWind,                                 !- Wind Exposure
  ,                                       !- View Factor to Ground
  ,                                       !- Number of Vertices
  12.9315688143396, -12.9315688143396, 2.4384, !- X,Y,Z Vertex 1 {m}
  12.9315688143396, 0, 2.4384,            !- X,Y,Z Vertex 2 {m}
  6.46578440716979, 0, 2.4384,            !- X,Y,Z Vertex 3 {m}
  6.46578440716979, -12.9315688143396, 2.4384; !- X,Y,Z Vertex 4 {m}

OS:Surface,
  {aad0a528-d853-4461-8eb0-d09ef1e51e70}, !- Handle
  Surface 17,                             !- Name
  Wall,                                   !- Surface Type
  ,                                       !- Construction Name
  {125cbe35-41ae-499e-9e6e-f22b8cfee27b}, !- Space Name
  Outdoors,                               !- Outside Boundary Condition
  ,                                       !- Outside Boundary Condition Object
  SunExposed,                             !- Sun Exposure
  WindExposed,                            !- Wind Exposure
  ,                                       !- View Factor to Ground
  ,                                       !- Number of Vertices
  6.46578440716979, -12.9315688143396, 2.4384, !- X,Y,Z Vertex 1 {m}
  6.46578440716979, -12.9315688143396, 0, !- X,Y,Z Vertex 2 {m}
  12.9315688143396, -12.9315688143396, 0, !- X,Y,Z Vertex 3 {m}
  12.9315688143396, -12.9315688143396, 2.4384; !- X,Y,Z Vertex 4 {m}

OS:ThermalZone,
  {19d0bdd6-9916-4d02-84c4-4240cd6354f8}, !- Handle
  living zone|unit 3,                     !- Name
  ,                                       !- Multiplier
  ,                                       !- Ceiling Height {m}
  ,                                       !- Volume {m3}
  ,                                       !- Floor Area {m2}
  ,                                       !- Zone Inside Convection Algorithm
  ,                                       !- Zone Outside Convection Algorithm
  ,                                       !- Zone Conditioning Equipment List Name
  {55908449-7e57-435b-8ff5-bcdc7736d317}, !- Zone Air Inlet Port List
  {99bdaf44-48ea-4bfd-bafd-f43fa5aed5fd}, !- Zone Air Exhaust Port List
  {4d02ff1c-fb86-467f-befb-8daafc93ee3e}, !- Zone Air Node Name
  {2099de11-b5d1-40b4-ac4b-4cb23be8a08f}, !- Zone Return Air Port List
  ,                                       !- Primary Daylighting Control Name
  ,                                       !- Fraction of Zone Controlled by Primary Daylighting Control
  ,                                       !- Secondary Daylighting Control Name
  ,                                       !- Fraction of Zone Controlled by Secondary Daylighting Control
  ,                                       !- Illuminance Map Name
  ,                                       !- Group Rendering Name
  ,                                       !- Thermostat Name
  No;                                     !- Use Ideal Air Loads

OS:Node,
  {e04664c4-87a7-4a7e-8534-3e1f703e8461}, !- Handle
  Node 3,                                 !- Name
  {4d02ff1c-fb86-467f-befb-8daafc93ee3e}, !- Inlet Port
  ;                                       !- Outlet Port

OS:Connection,
  {4d02ff1c-fb86-467f-befb-8daafc93ee3e}, !- Handle
  {f3f20157-6a0e-4bc6-bf0a-7e426e1aa7bb}, !- Name
  {19d0bdd6-9916-4d02-84c4-4240cd6354f8}, !- Source Object
  11,                                     !- Outlet Port
  {e04664c4-87a7-4a7e-8534-3e1f703e8461}, !- Target Object
  2;                                      !- Inlet Port

OS:PortList,
  {55908449-7e57-435b-8ff5-bcdc7736d317}, !- Handle
  {454b7960-c510-4692-aead-1ffa2d05874b}, !- Name
  {19d0bdd6-9916-4d02-84c4-4240cd6354f8}; !- HVAC Component

OS:PortList,
  {99bdaf44-48ea-4bfd-bafd-f43fa5aed5fd}, !- Handle
  {a39f62e6-38fd-4d02-aaef-3768a2838b8b}, !- Name
  {19d0bdd6-9916-4d02-84c4-4240cd6354f8}; !- HVAC Component

OS:PortList,
  {2099de11-b5d1-40b4-ac4b-4cb23be8a08f}, !- Handle
  {41680e77-7cfd-4357-a73b-f1d362fb135a}, !- Name
  {19d0bdd6-9916-4d02-84c4-4240cd6354f8}; !- HVAC Component

OS:Sizing:Zone,
  {ef0929d6-2b40-483e-8188-4d311bbde366}, !- Handle
  {19d0bdd6-9916-4d02-84c4-4240cd6354f8}, !- Zone or ZoneList Name