!- NOTE: Auto-generated from /test/osw_files/SFA_4units_1story_FB_UA_3Beds_2Baths_Denver_WHTank_ClothesWasher.osw

OS:Version,
  {aecaad03-ba66-4557-b741-fdf595df6308}, !- Handle
  2.8.0;                                  !- Version Identifier

OS:SimulationControl,
  {85c28fb2-0b2f-4eda-bc50-cf3365371c62}, !- Handle
  ,                                       !- Do Zone Sizing Calculation
  ,                                       !- Do System Sizing Calculation
  ,                                       !- Do Plant Sizing Calculation
  No;                                     !- Run Simulation for Sizing Periods

OS:Timestep,
  {372f8d8d-c311-4d87-b243-f82cc4dfc681}, !- Handle
  6;                                      !- Number of Timesteps per Hour

OS:ShadowCalculation,
  {6f1b36d0-53bc-4bf5-96f3-89f3d653efdd}, !- Handle
  20,                                     !- Calculation Frequency
  200;                                    !- Maximum Figures in Shadow Overlap Calculations

OS:SurfaceConvectionAlgorithm:Outside,
  {e27e355f-4d20-4049-9997-fa4ceec5a452}, !- Handle
  DOE-2;                                  !- Algorithm

OS:SurfaceConvectionAlgorithm:Inside,
  {8b767573-eaa2-4762-936e-8274e07efac1}, !- Handle
  TARP;                                   !- Algorithm

OS:ZoneCapacitanceMultiplier:ResearchSpecial,
  {7da3915e-2f96-42ff-8a51-5c2e2ea1d791}, !- Handle
  ,                                       !- Temperature Capacity Multiplier
  15,                                     !- Humidity Capacity Multiplier
  ;                                       !- Carbon Dioxide Capacity Multiplier

OS:RunPeriod,
  {f9e22a66-08e9-424b-a699-140080bf802e}, !- Handle
  Run Period 1,                           !- Name
  1,                                      !- Begin Month
  1,                                      !- Begin Day of Month
  12,                                     !- End Month
  31,                                     !- End Day of Month
  ,                                       !- Use Weather File Holidays and Special Days
  ,                                       !- Use Weather File Daylight Saving Period
  ,                                       !- Apply Weekend Holiday Rule
  ,                                       !- Use Weather File Rain Indicators
  ,                                       !- Use Weather File Snow Indicators
  ;                                       !- Number of Times Runperiod to be Repeated

OS:ThermalZone,
  {0d8cffbe-23f1-48a8-b0f8-b680a62cf63b}, !- Handle
  living zone,                            !- Name
  ,                                       !- Multiplier
  ,                                       !- Ceiling Height {m}
  ,                                       !- Volume {m3}
  ,                                       !- Floor Area {m2}
  ,                                       !- Zone Inside Convection Algorithm
  ,                                       !- Zone Outside Convection Algorithm
  ,                                       !- Zone Conditioning Equipment List Name
  {8685768f-2807-4d1e-886f-9f5b53638b4f}, !- Zone Air Inlet Port List
  {bc9b9152-a2e2-4875-a077-b15ffb77d9f2}, !- Zone Air Exhaust Port List
  {e74f0fd6-1a52-4bbf-b9d1-726f0491d540}, !- Zone Air Node Name
  {adbb7ca6-e2e7-4071-afb8-45ebb0cbc5af}, !- Zone Return Air Port List
  ,                                       !- Primary Daylighting Control Name
  ,                                       !- Fraction of Zone Controlled by Primary Daylighting Control
  ,                                       !- Secondary Daylighting Control Name
  ,                                       !- Fraction of Zone Controlled by Secondary Daylighting Control
  ,                                       !- Illuminance Map Name
  ,                                       !- Group Rendering Name
  ,                                       !- Thermostat Name
  No;                                     !- Use Ideal Air Loads

OS:Node,
  {f843ae2e-e663-4dcb-95fa-2413d5dd4f1f}, !- Handle
  Node 1,                                 !- Name
  {e74f0fd6-1a52-4bbf-b9d1-726f0491d540}, !- Inlet Port
  ;                                       !- Outlet Port

OS:Connection,
  {e74f0fd6-1a52-4bbf-b9d1-726f0491d540}, !- Handle
  {278d42fe-de4d-4827-81c9-200b42e37c6f}, !- Name
  {0d8cffbe-23f1-48a8-b0f8-b680a62cf63b}, !- Source Object
  11,                                     !- Outlet Port
  {f843ae2e-e663-4dcb-95fa-2413d5dd4f1f}, !- Target Object
  2;                                      !- Inlet Port

OS:PortList,
  {8685768f-2807-4d1e-886f-9f5b53638b4f}, !- Handle
  {3049c814-e723-4e1e-8785-9198d7695181}, !- Name
  {0d8cffbe-23f1-48a8-b0f8-b680a62cf63b}; !- HVAC Component

OS:PortList,
  {bc9b9152-a2e2-4875-a077-b15ffb77d9f2}, !- Handle
  {601b820e-f881-4f95-8128-3a2f99d96712}, !- Name
  {0d8cffbe-23f1-48a8-b0f8-b680a62cf63b}; !- HVAC Component

OS:PortList,
  {adbb7ca6-e2e7-4071-afb8-45ebb0cbc5af}, !- Handle
  {9478ba33-63ff-4108-b30c-4450592d62d1}, !- Name
  {0d8cffbe-23f1-48a8-b0f8-b680a62cf63b}; !- HVAC Component

OS:Sizing:Zone,
  {a2bb4155-92f7-48ee-8ac7-5c6e416ea9c5}, !- Handle
  {0d8cffbe-23f1-48a8-b0f8-b680a62cf63b}, !- Zone or ZoneList Name
  SupplyAirTemperature,                   !- Zone Cooling Design Supply Air Temperature Input Method
  14,                                     !- Zone Cooling Design Supply Air Temperature {C}
  11.11,                                  !- Zone Cooling Design Supply Air Temperature Difference {deltaC}
  SupplyAirTemperature,                   !- Zone Heating Design Supply Air Temperature Input Method
  40,                                     !- Zone Heating Design Supply Air Temperature {C}
  11.11,                                  !- Zone Heating Design Supply Air Temperature Difference {deltaC}
  0.0085,                                 !- Zone Cooling Design Supply Air Humidity Ratio {kg-H2O/kg-air}
  0.008,                                  !- Zone Heating Design Supply Air Humidity Ratio {kg-H2O/kg-air}
  ,                                       !- Zone Heating Sizing Factor
  ,                                       !- Zone Cooling Sizing Factor
  DesignDay,                              !- Cooling Design Air Flow Method
  ,                                       !- Cooling Design Air Flow Rate {m3/s}
  ,                                       !- Cooling Minimum Air Flow per Zone Floor Area {m3/s-m2}
  ,                                       !- Cooling Minimum Air Flow {m3/s}
  ,                                       !- Cooling Minimum Air Flow Fraction
  DesignDay,                              !- Heating Design Air Flow Method
  ,                                       !- Heating Design Air Flow Rate {m3/s}
  ,                                       !- Heating Maximum Air Flow per Zone Floor Area {m3/s-m2}
  ,                                       !- Heating Maximum Air Flow {m3/s}
  ,                                       !- Heating Maximum Air Flow Fraction
  ,                                       !- Design Zone Air Distribution Effectiveness in Cooling Mode
  ,                                       !- Design Zone Air Distribution Effectiveness in Heating Mode
  No,                                     !- Account for Dedicated Outdoor Air System
  NeutralSupplyAir,                       !- Dedicated Outdoor Air System Control Strategy
  autosize,                               !- Dedicated Outdoor Air Low Setpoint Temperature for Design {C}
  autosize;                               !- Dedicated Outdoor Air High Setpoint Temperature for Design {C}

OS:ZoneHVAC:EquipmentList,
  {2aa4aa1c-bd54-427c-a7b7-3249c98ab4f0}, !- Handle
  Zone HVAC Equipment List 1,             !- Name
  {0d8cffbe-23f1-48a8-b0f8-b680a62cf63b}; !- Thermal Zone

OS:Space,
  {97d12c50-2906-4fc6-b0cc-be02b0437ef5}, !- Handle
  living space,                           !- Name
  {d1074e74-1147-4915-8a93-ea994f6b4514}, !- Space Type Name
  ,                                       !- Default Construction Set Name
  ,                                       !- Default Schedule Set Name
  ,                                       !- Direction of Relative North {deg}
  ,                                       !- X Origin {m}
  ,                                       !- Y Origin {m}
  ,                                       !- Z Origin {m}
  ,                                       !- Building Story Name
  {0d8cffbe-23f1-48a8-b0f8-b680a62cf63b}, !- Thermal Zone Name
  ,                                       !- Part of Total Floor Area
  ,                                       !- Design Specification Outdoor Air Object Name
  {dac3d28e-bd19-40b4-a2cf-f2ab69f3a84a}; !- Building Unit Name

OS:Surface,
  {3ca6efe1-b725-4a32-b48c-2508d39b876c}, !- Handle
  Surface 1,                              !- Name
  Floor,                                  !- Surface Type
  ,                                       !- Construction Name
  {97d12c50-2906-4fc6-b0cc-be02b0437ef5}, !- Space Name
  Surface,                                !- Outside Boundary Condition
  {bb8c5b78-838e-49bc-8900-13665f92513d}, !- Outside Boundary Condition Object
  NoSun,                                  !- Sun Exposure
  NoWind,                                 !- Wind Exposure
  ,                                       !- View Factor to Ground
  ,                                       !- Number of Vertices
  0, -9.144, 0,                           !- X,Y,Z Vertex 1 {m}
  0, 0, 0,                                !- X,Y,Z Vertex 2 {m}
  4.572, 0, 0,                            !- X,Y,Z Vertex 3 {m}
  4.572, -9.144, 0;                       !- X,Y,Z Vertex 4 {m}

OS:Surface,
  {598de934-d416-4edc-80ed-fbecf9f528e0}, !- Handle
  Surface 2,                              !- Name
  Wall,                                   !- Surface Type
  ,                                       !- Construction Name
  {97d12c50-2906-4fc6-b0cc-be02b0437ef5}, !- Space Name
  Outdoors,                               !- Outside Boundary Condition
  ,                                       !- Outside Boundary Condition Object
  SunExposed,                             !- Sun Exposure
  WindExposed,                            !- Wind Exposure
  ,                                       !- View Factor to Ground
  ,                                       !- Number of Vertices
  0, 0, 2.4384,                           !- X,Y,Z Vertex 1 {m}
  0, 0, 0,                                !- X,Y,Z Vertex 2 {m}
  0, -9.144, 0,                           !- X,Y,Z Vertex 3 {m}
  0, -9.144, 2.4384;                      !- X,Y,Z Vertex 4 {m}

OS:Surface,
  {47c3a8ad-ae14-4acd-a1b8-cead53de9dc2}, !- Handle
  Surface 3,                              !- Name
  Wall,                                   !- Surface Type
  ,                                       !- Construction Name
  {97d12c50-2906-4fc6-b0cc-be02b0437ef5}, !- Space Name
  Outdoors,                               !- Outside Boundary Condition
  ,                                       !- Outside Boundary Condition Object
  SunExposed,                             !- Sun Exposure
  WindExposed,                            !- Wind Exposure
  ,                                       !- View Factor to Ground
  ,                                       !- Number of Vertices
  4.572, 0, 2.4384,                       !- X,Y,Z Vertex 1 {m}
  4.572, 0, 0,                            !- X,Y,Z Vertex 2 {m}
  0, 0, 0,                                !- X,Y,Z Vertex 3 {m}
  0, 0, 2.4384;                           !- X,Y,Z Vertex 4 {m}

OS:Surface,
  {ea8f936c-783a-4e22-9dfa-b52a831ea111}, !- Handle
  Surface 4,                              !- Name
  Wall,                                   !- Surface Type
  ,                                       !- Construction Name
  {97d12c50-2906-4fc6-b0cc-be02b0437ef5}, !- Space Name
  Surface,                                !- Outside Boundary Condition
  {46aca272-db51-4b2f-a3bd-136b76d7095e}, !- Outside Boundary Condition Object
  NoSun,                                  !- Sun Exposure
  NoWind,                                 !- Wind Exposure
  ,                                       !- View Factor to Ground
  ,                                       !- Number of Vertices
  4.572, -9.144, 2.4384,                  !- X,Y,Z Vertex 1 {m}
  4.572, -9.144, 0,                       !- X,Y,Z Vertex 2 {m}
  4.572, 0, 0,                            !- X,Y,Z Vertex 3 {m}
  4.572, 0, 2.4384;                       !- X,Y,Z Vertex 4 {m}

OS:Surface,
  {a50a8b38-ed5c-4787-8bad-0323032ae54e}, !- Handle
  Surface 5,                              !- Name
  Wall,                                   !- Surface Type
  ,                                       !- Construction Name
  {97d12c50-2906-4fc6-b0cc-be02b0437ef5}, !- Space Name
  Outdoors,                               !- Outside Boundary Condition
  ,                                       !- Outside Boundary Condition Object
  SunExposed,                             !- Sun Exposure
  WindExposed,                            !- Wind Exposure
  ,                                       !- View Factor to Ground
  ,                                       !- Number of Vertices
  0, -9.144, 2.4384,                      !- X,Y,Z Vertex 1 {m}
  0, -9.144, 0,                           !- X,Y,Z Vertex 2 {m}
  4.572, -9.144, 0,                       !- X,Y,Z Vertex 3 {m}
  4.572, -9.144, 2.4384;                  !- X,Y,Z Vertex 4 {m}

OS:Surface,
  {29c79f3e-ad11-4fe1-a215-475588b4baf6}, !- Handle
  Surface 6,                              !- Name
  RoofCeiling,                            !- Surface Type
  ,                                       !- Construction Name
  {97d12c50-2906-4fc6-b0cc-be02b0437ef5}, !- Space Name
  Surface,                                !- Outside Boundary Condition
  {0b65d1c4-d167-4365-b6a9-3a12e46fe31b}, !- Outside Boundary Condition Object
  NoSun,                                  !- Sun Exposure
  NoWind,                                 !- Wind Exposure
  ,                                       !- View Factor to Ground
  ,                                       !- Number of Vertices
  4.572, -9.144, 2.4384,                  !- X,Y,Z Vertex 1 {m}
  4.572, 0, 2.4384,                       !- X,Y,Z Vertex 2 {m}
  0, 0, 2.4384,                           !- X,Y,Z Vertex 3 {m}
  0, -9.144, 2.4384;                      !- X,Y,Z Vertex 4 {m}

OS:SpaceType,
  {d1074e74-1147-4915-8a93-ea994f6b4514}, !- Handle
  Space Type 1,                           !- Name
  ,                                       !- Default Construction Set Name
  ,                                       !- Default Schedule Set Name
  ,                                       !- Group Rendering Name
  ,                                       !- Design Specification Outdoor Air Object Name
  ,                                       !- Standards Template
  ,                                       !- Standards Building Type
  living;                                 !- Standards Space Type

OS:ThermalZone,
  {b2643221-c95c-4cbd-af70-7578517fc186}, !- Handle
  living zone|unit 2,                     !- Name
  ,                                       !- Multiplier
  ,                                       !- Ceiling Height {m}
  ,                                       !- Volume {m3}
  ,                                       !- Floor Area {m2}
  ,                                       !- Zone Inside Convection Algorithm
  ,                                       !- Zone Outside Convection Algorithm
  ,                                       !- Zone Conditioning Equipment List Name
  {d2292b30-84ab-4ac5-bae0-77fbc288f111}, !- Zone Air Inlet Port List
  {26d10dc0-08a2-4dc6-a716-1f212a74c804}, !- Zone Air Exhaust Port List
  {d23796f0-795f-40dc-8e51-1a353431e78a}, !- Zone Air Node Name
  {11909ab3-4055-4214-94b1-9cc7424830d3}, !- Zone Return Air Port List
  ,                                       !- Primary Daylighting Control Name
  ,                                       !- Fraction of Zone Controlled by Primary Daylighting Control
  ,                                       !- Secondary Daylighting Control Name
  ,                                       !- Fraction of Zone Controlled by Secondary Daylighting Control
  ,                                       !- Illuminance Map Name
  ,                                       !- Group Rendering Name
  ,                                       !- Thermostat Name
  No;                                     !- Use Ideal Air Loads

OS:Node,
  {64a7d7d1-b85b-44cb-8d73-76964c9de6d9}, !- Handle
  Node 2,                                 !- Name
  {d23796f0-795f-40dc-8e51-1a353431e78a}, !- Inlet Port
  ;                                       !- Outlet Port

OS:Connection,
  {d23796f0-795f-40dc-8e51-1a353431e78a}, !- Handle
  {c8b31906-167f-47d6-a59f-cb6721a78e5c}, !- Name
  {b2643221-c95c-4cbd-af70-7578517fc186}, !- Source Object
  11,                                     !- Outlet Port
  {64a7d7d1-b85b-44cb-8d73-76964c9de6d9}, !- Target Object
  2;                                      !- Inlet Port

OS:PortList,
  {d2292b30-84ab-4ac5-bae0-77fbc288f111}, !- Handle
  {d2157b29-36f1-48d4-aba8-6e063d555bde}, !- Name
  {b2643221-c95c-4cbd-af70-7578517fc186}; !- HVAC Component

OS:PortList,
  {26d10dc0-08a2-4dc6-a716-1f212a74c804}, !- Handle
  {a323dbd4-5dd0-4896-95a4-f651358ec54f}, !- Name
  {b2643221-c95c-4cbd-af70-7578517fc186}; !- HVAC Component

OS:PortList,
  {11909ab3-4055-4214-94b1-9cc7424830d3}, !- Handle
  {6212de92-4906-4009-bf7d-eb42eb9cba1d}, !- Name
  {b2643221-c95c-4cbd-af70-7578517fc186}; !- HVAC Component

OS:Sizing:Zone,
  {9ca4e670-154d-4047-94a8-7b3439518c97}, !- Handle
  {b2643221-c95c-4cbd-af70-7578517fc186}, !- Zone or ZoneList Name
  SupplyAirTemperature,                   !- Zone Cooling Design Supply Air Temperature Input Method
  14,                                     !- Zone Cooling Design Supply Air Temperature {C}
  11.11,                                  !- Zone Cooling Design Supply Air Temperature Difference {deltaC}
  SupplyAirTemperature,                   !- Zone Heating Design Supply Air Temperature Input Method
  40,                                     !- Zone Heating Design Supply Air Temperature {C}
  11.11,                                  !- Zone Heating Design Supply Air Temperature Difference {deltaC}
  0.0085,                                 !- Zone Cooling Design Supply Air Humidity Ratio {kg-H2O/kg-air}
  0.008,                                  !- Zone Heating Design Supply Air Humidity Ratio {kg-H2O/kg-air}
  ,                                       !- Zone Heating Sizing Factor
  ,                                       !- Zone Cooling Sizing Factor
  DesignDay,                              !- Cooling Design Air Flow Method
  ,                                       !- Cooling Design Air Flow Rate {m3/s}
  ,                                       !- Cooling Minimum Air Flow per Zone Floor Area {m3/s-m2}
  ,                                       !- Cooling Minimum Air Flow {m3/s}
  ,                                       !- Cooling Minimum Air Flow Fraction
  DesignDay,                              !- Heating Design Air Flow Method
  ,                                       !- Heating Design Air Flow Rate {m3/s}
  ,                                       !- Heating Maximum Air Flow per Zone Floor Area {m3/s-m2}
  ,                                       !- Heating Maximum Air Flow {m3/s}
  ,                                       !- Heating Maximum Air Flow Fraction
  ,                                       !- Design Zone Air Distribution Effectiveness in Cooling Mode
  ,                                       !- Design Zone Air Distribution Effectiveness in Heating Mode
  No,                                     !- Account for Dedicated Outdoor Air System
  NeutralSupplyAir,                       !- Dedicated Outdoor Air System Control Strategy
  autosize,                               !- Dedicated Outdoor Air Low Setpoint Temperature for Design {C}
  autosize;                               !- Dedicated Outdoor Air High Setpoint Temperature for Design {C}

OS:ZoneHVAC:EquipmentList,
  {ed41279f-1512-4e29-b283-4ff6f7b05f56}, !- Handle
  Zone HVAC Equipment List 2,             !- Name
  {b2643221-c95c-4cbd-af70-7578517fc186}; !- Thermal Zone

OS:Space,
  {4318ee99-84d1-462c-aad9-6168a7d1ec5a}, !- Handle
  living space|unit 2|story 1,            !- Name
  {d1074e74-1147-4915-8a93-ea994f6b4514}, !- Space Type Name
  ,                                       !- Default Construction Set Name
  ,                                       !- Default Schedule Set Name
  -0,                                     !- Direction of Relative North {deg}
  0,                                      !- X Origin {m}
  0,                                      !- Y Origin {m}
  0,                                      !- Z Origin {m}
  ,                                       !- Building Story Name
  {b2643221-c95c-4cbd-af70-7578517fc186}, !- Thermal Zone Name
  ,                                       !- Part of Total Floor Area
  ,                                       !- Design Specification Outdoor Air Object Name
  {1c6ac595-9e6f-47ce-a38c-f984f870e79b}; !- Building Unit Name

OS:Surface,
  {20ace1ce-a359-4697-ba12-4b9fae83164e}, !- Handle
  Surface 12,                             !- Name
  Wall,                                   !- Surface Type
  ,                                       !- Construction Name
  {4318ee99-84d1-462c-aad9-6168a7d1ec5a}, !- Space Name
  Surface,                                !- Outside Boundary Condition
  {7b5e503c-8b38-460b-ade6-8c56aaf8d482}, !- Outside Boundary Condition Object
  NoSun,                                  !- Sun Exposure
  NoWind,                                 !- Wind Exposure
  ,                                       !- View Factor to Ground
  ,                                       !- Number of Vertices
  9.144, -9.144, 2.4384,                  !- X,Y,Z Vertex 1 {m}
  9.144, -9.144, 0,                       !- X,Y,Z Vertex 2 {m}
  9.144, 0, 0,                            !- X,Y,Z Vertex 3 {m}
  9.144, 0, 2.4384;                       !- X,Y,Z Vertex 4 {m}

OS:Surface,
  {ca7f45b6-b266-4c6c-b73b-08e6f37a4444}, !- Handle
  Surface 13,                             !- Name
  Wall,                                   !- Surface Type
  ,                                       !- Construction Name
  {4318ee99-84d1-462c-aad9-6168a7d1ec5a}, !- Space Name
  Outdoors,                               !- Outside Boundary Condition
  ,                                       !- Outside Boundary Condition Object
  SunExposed,                             !- Sun Exposure
  WindExposed,                            !- Wind Exposure
  ,                                       !- View Factor to Ground
  ,                                       !- Number of Vertices
  4.572, -9.144, 2.4384,                  !- X,Y,Z Vertex 1 {m}
  4.572, -9.144, 0,                       !- X,Y,Z Vertex 2 {m}
  9.144, -9.144, 0,                       !- X,Y,Z Vertex 3 {m}
  9.144, -9.144, 2.4384;                  !- X,Y,Z Vertex 4 {m}

OS:Surface,
  {46aca272-db51-4b2f-a3bd-136b76d7095e}, !- Handle
  Surface 14,                             !- Name
  Wall,                                   !- Surface Type
  ,                                       !- Construction Name
  {4318ee99-84d1-462c-aad9-6168a7d1ec5a}, !- Space Name
  Surface,                                !- Outside Boundary Condition
  {ea8f936c-783a-4e22-9dfa-b52a831ea111}, !- Outside Boundary Condition Object
  NoSun,                                  !- Sun Exposure
  NoWind,                                 !- Wind Exposure
  ,                                       !- View Factor to Ground
  ,                                       !- Number of Vertices
  4.572, 0, 2.4384,                       !- X,Y,Z Vertex 1 {m}
  4.572, 0, 0,                            !- X,Y,Z Vertex 2 {m}
  4.572, -9.144, 0,                       !- X,Y,Z Vertex 3 {m}
  4.572, -9.144, 2.4384;                  !- X,Y,Z Vertex 4 {m}

OS:Surface,
  {0a2ee691-2c47-4601-b972-f8e9fd4e8886}, !- Handle
  Surface 15,                             !- Name
  RoofCeiling,                            !- Surface Type
  ,                                       !- Construction Name
  {4318ee99-84d1-462c-aad9-6168a7d1ec5a}, !- Space Name
  Surface,                                !- Outside Boundary Condition
  {fb7b0d32-86f1-433d-b5f5-06f2d3fda062}, !- Outside Boundary Condition Object
  NoSun,                                  !- Sun Exposure
  NoWind,                                 !- Wind Exposure
  ,                                       !- View Factor to Ground
  ,                                       !- Number of Vertices
  9.144, -9.144, 2.4384,                  !- X,Y,Z Vertex 1 {m}
  9.144, 0, 2.4384,                       !- X,Y,Z Vertex 2 {m}
  4.572, 0, 2.4384,                       !- X,Y,Z Vertex 3 {m}
  4.572, -9.144, 2.4384;                  !- X,Y,Z Vertex 4 {m}

OS:Surface,
  {b323c297-d56c-4f9b-9060-2346d079eb8c}, !- Handle
  Surface 16,                             !- Name
  Wall,                                   !- Surface Type
  ,                                       !- Construction Name
  {4318ee99-84d1-462c-aad9-6168a7d1ec5a}, !- Space Name
  Outdoors,                               !- Outside Boundary Condition
  ,                                       !- Outside Boundary Condition Object
  SunExposed,                             !- Sun Exposure
  WindExposed,                            !- Wind Exposure
  ,                                       !- View Factor to Ground
  ,                                       !- Number of Vertices
  9.144, 0, 2.4384,                       !- X,Y,Z Vertex 1 {m}
  9.144, 0, 0,                            !- X,Y,Z Vertex 2 {m}
  4.572, 0, 0,                            !- X,Y,Z Vertex 3 {m}
  4.572, 0, 2.4384;                       !- X,Y,Z Vertex 4 {m}

OS:Surface,
  {a2b46e6c-14b6-4c80-a09d-a0e503343d4f}, !- Handle
  Surface 17,                             !- Name
  Floor,                                  !- Surface Type
  ,                                       !- Construction Name
  {4318ee99-84d1-462c-aad9-6168a7d1ec5a}, !- Space Name
  Surface,                                !- Outside Boundary Condition
  {2b3329ad-2c87-4c61-a3f3-7bd029314cba}, !- Outside Boundary Condition Object
  NoSun,                                  !- Sun Exposure
  NoWind,                                 !- Wind Exposure
  ,                                       !- View Factor to Ground
  ,                                       !- Number of Vertices
  4.572, -9.144, 0,                       !- X,Y,Z Vertex 1 {m}
  4.572, 0, 0,                            !- X,Y,Z Vertex 2 {m}
  9.144, 0, 0,                            !- X,Y,Z Vertex 3 {m}
  9.144, -9.144, 0;                       !- X,Y,Z Vertex 4 {m}

OS:ThermalZone,
  {25f2db70-a707-4d86-b64d-1f3a5be82758}, !- Handle
  living zone|unit 3,                     !- Name
  ,                                       !- Multiplier
  ,                                       !- Ceiling Height {m}
  ,                                       !- Volume {m3}
  ,                                       !- Floor Area {m2}
  ,                                       !- Zone Inside Convection Algorithm
  ,                                       !- Zone Outside Convection Algorithm
  ,                                       !- Zone Conditioning Equipment List Name
  {c2101e3a-ed9b-4f44-b18d-82ee13ac3b94}, !- Zone Air Inlet Port List
  {5f5746a7-3f5a-40dc-9bb9-6c217da0aa15}, !- Zone Air Exhaust Port List
  {4c594914-109d-469d-a309-99a61a7b150d}, !- Zone Air Node Name
  {e7c42871-8c44-494a-8ac1-9bd6ab9e4bdf}, !- Zone Return Air Port List
  ,                                       !- Primary Daylighting Control Name
  ,                                       !- Fraction of Zone Controlled by Primary Daylighting Control
  ,                                       !- Secondary Daylighting Control Name
  ,                                       !- Fraction of Zone Controlled by Secondary Daylighting Control
  ,                                       !- Illuminance Map Name
  ,                                       !- Group Rendering Name
  ,                                       !- Thermostat Name
  No;                                     !- Use Ideal Air Loads

OS:Node,
  {6c400ea7-c277-49c1-bb63-81b67629ea76}, !- Handle
  Node 3,                                 !- Name
  {4c594914-109d-469d-a309-99a61a7b150d}, !- Inlet Port
  ;                                       !- Outlet Port

OS:Connection,
  {4c594914-109d-469d-a309-99a61a7b150d}, !- Handle
  {f05b34ee-ed53-4818-acb3-5ac659b7e5b6}, !- Name
  {25f2db70-a707-4d86-b64d-1f3a5be82758}, !- Source Object
  11,                                     !- Outlet Port
  {6c400ea7-c277-49c1-bb63-81b67629ea76}, !- Target Object
  2;                                      !- Inlet Port

OS:PortList,
  {c2101e3a-ed9b-4f44-b18d-82ee13ac3b94}, !- Handle
  {93deecba-2618-4bc8-918d-c698b0caff43}, !- Name
  {25f2db70-a707-4d86-b64d-1f3a5be82758}; !- HVAC Component

OS:PortList,
  {5f5746a7-3f5a-40dc-9bb9-6c217da0aa15}, !- Handle
  {5ff471f7-996e-4332-bb65-5b90590a1daa}, !- Name
  {25f2db70-a707-4d86-b64d-1f3a5be82758}; !- HVAC Component

OS:PortList,
  {e7c42871-8c44-494a-8ac1-9bd6ab9e4bdf}, !- Handle
  {635440a0-0e9e-4c07-b1e7-53df1a0ccade}, !- Name
  {25f2db70-a707-4d86-b64d-1f3a5be82758}; !- HVAC Component

OS:Sizing:Zone,
  {2a8b9dc4-716f-4523-923c-ad468cb8e1ba}, !- Handle
  {25f2db70-a707-4d86-b64d-1f3a5be82758}, !- Zone or ZoneList Name
  SupplyAirTemperature,                   !- Zone Cooling Design Supply Air Temperature Input Method
  14,                                     !- Zone Cooling Design Supply Air Temperature {C}
  11.11,                                  !- Zone Cooling Design Supply Air Temperature Difference {deltaC}