!- NOTE: Auto-generated from /test/osw_files/SFA_4units_1story_SL_UA_3Beds_2Baths_Denver_CentralAC_NoSetpoints.osw

OS:Version,
  {8b5ff886-6a6f-4eee-a88c-351dda5dba95}, !- Handle
  2.8.0;                                  !- Version Identifier

OS:Building,
  {c4868623-e401-41c5-98fc-28d5e7ac2f51}, !- Handle
  Building 1,                             !- Name
  ,                                       !- Building Sector Type
  0,                                      !- North Axis {deg}
  ,                                       !- Nominal Floor to Floor Height {m}
  ,                                       !- Space Type Name
  ,                                       !- Default Construction Set Name
  ,                                       !- Default Schedule Set Name
  1,                                      !- Standards Number of Stories
  1,                                      !- Standards Number of Above Ground Stories
  ,                                       !- Standards Template
  singlefamilyattached,                   !- Standards Building Type
  4;                                      !- Standards Number of Living Units

OS:Facility,
  {8315bfd5-af13-435e-a3fc-71da6d27c2bc}; !- Handle

OS:Site,
  {68f20100-c022-47b8-a9e3-e7be367ad1e0}, !- Handle
  Denver Intl Ap_CO_USA,                  !- Name
  39.83,                                  !- Latitude {deg}
  -104.65,                                !- Longitude {deg}
  -7,                                     !- Time Zone {hr}
  1650,                                   !- Elevation {m}
  ;                                       !- Terrain

OS:SimulationControl,
  {7326da3e-69b5-43fb-a6ee-f8db2cff7469}, !- Handle
  ,                                       !- Do Zone Sizing Calculation
  ,                                       !- Do System Sizing Calculation
  ,                                       !- Do Plant Sizing Calculation
  No;                                     !- Run Simulation for Sizing Periods

OS:Sizing:Parameters,
  {40777069-0407-4ccd-8636-556b49f123dc}, !- Handle
  1.25,                                   !- Heating Sizing Factor
  1.15;                                   !- Cooling Sizing Factor

OS:Timestep,
  {439ef806-f1af-4187-938b-c86175e3fea5}, !- Handle
  6;                                      !- Number of Timesteps per Hour

OS:ShadowCalculation,
  {c0571892-bd71-42d9-b908-05409b548976}, !- Handle
  20,                                     !- Calculation Frequency
  200;                                    !- Maximum Figures in Shadow Overlap Calculations

OS:HeatBalanceAlgorithm,
  {3abbc110-c944-4205-bb55-50a4496a2ac4}, !- Handle
  ConductionTransferFunction,             !- Algorithm
  200;                                    !- Surface Temperature Upper Limit {C}

OS:RunPeriod,
  {4fd0eb7d-8d39-46bb-8883-6636bc50563f}, !- Handle
  Run Period 1,                           !- Name
  1,                                      !- Begin Month
  1,                                      !- Begin Day of Month
  12,                                     !- End Month
  31,                                     !- End Day of Month
  ,                                       !- Use Weather File Holidays and Special Days
  ,                                       !- Use Weather File Daylight Saving Period
  ,                                       !- Apply Weekend Holiday Rule
  ,                                       !- Use Weather File Rain Indicators
  ,                                       !- Use Weather File Snow Indicators
  ;                                       !- Number of Times Runperiod to be Repeated

OS:LifeCycleCost:Parameters,
  {e0d7cb0a-9f51-47c5-af71-3e87d6dbdd84}, !- Handle
  ,                                       !- Analysis Type
  ,                                       !- Discounting Convention
  ,                                       !- Inflation Approach
  ,                                       !- Real Discount Rate
  ,                                       !- Nominal Discount Rate
  ,                                       !- Inflation
  ,                                       !- Base Date Month
  ,                                       !- Base Date Year
  ,                                       !- Service Date Month
  ,                                       !- Service Date Year
  ;                                       !- Length of Study Period in Years

OS:SurfaceConvectionAlgorithm:Outside,
  {750804bd-6f49-4658-bc0e-182567bde5b9}, !- Handle
  DOE-2;                                  !- Algorithm

OS:SurfaceConvectionAlgorithm:Inside,
  {86e0b387-6ded-4b89-b25c-600107185337}, !- Handle
  TARP;                                   !- Algorithm

OS:ZoneCapacitanceMultiplier:ResearchSpecial,
  {b39e77cd-e2c1-4b10-8d9e-29b8846179b4}, !- Handle
  ,                                       !- Temperature Capacity Multiplier
  15,                                     !- Humidity Capacity Multiplier
  ;                                       !- Carbon Dioxide Capacity Multiplier

OS:ThermalZone,
  {9332623f-f5d3-4e39-b01e-8447466eb516}, !- Handle
  living zone,                            !- Name
  ,                                       !- Multiplier
  ,                                       !- Ceiling Height {m}
  ,                                       !- Volume {m3}
  ,                                       !- Floor Area {m2}
  ,                                       !- Zone Inside Convection Algorithm
  ,                                       !- Zone Outside Convection Algorithm
  ,                                       !- Zone Conditioning Equipment List Name
  {e0413f85-aeb6-4348-8b43-cf3508e1f268}, !- Zone Air Inlet Port List
  {7fdd1f1b-4529-4be1-ac42-74d0e55b6f40}, !- Zone Air Exhaust Port List
  {c641fa41-0ad8-47c5-a76a-3026e77d1afc}, !- Zone Air Node Name
  {63d8622b-4f7e-4c02-9b0e-46dfaa277532}, !- Zone Return Air Port List
  ,                                       !- Primary Daylighting Control Name
  ,                                       !- Fraction of Zone Controlled by Primary Daylighting Control
  ,                                       !- Secondary Daylighting Control Name
  ,                                       !- Fraction of Zone Controlled by Secondary Daylighting Control
  ,                                       !- Illuminance Map Name
  ,                                       !- Group Rendering Name
  ,                                       !- Thermostat Name
  No;                                     !- Use Ideal Air Loads

OS:Node,
  {c7d80bf6-8d21-4031-bc3b-c9c43f192542}, !- Handle
  Node 1,                                 !- Name
  {c641fa41-0ad8-47c5-a76a-3026e77d1afc}, !- Inlet Port
  ;                                       !- Outlet Port

OS:Connection,
  {c641fa41-0ad8-47c5-a76a-3026e77d1afc}, !- Handle
  {7ecc6df7-98e9-48bd-a616-39cdd732150d}, !- Name
  {9332623f-f5d3-4e39-b01e-8447466eb516}, !- Source Object
  11,                                     !- Outlet Port
  {c7d80bf6-8d21-4031-bc3b-c9c43f192542}, !- Target Object
  2;                                      !- Inlet Port

OS:PortList,
  {e0413f85-aeb6-4348-8b43-cf3508e1f268}, !- Handle
  {56fbbc3d-b9ac-43ce-afd2-846eec1f195d}, !- Name
  {9332623f-f5d3-4e39-b01e-8447466eb516}, !- HVAC Component
  {a40342fa-ee5e-4040-8293-762c59969ae7}; !- Port 1

OS:PortList,
  {7fdd1f1b-4529-4be1-ac42-74d0e55b6f40}, !- Handle
  {3015cddc-0460-4a53-9881-63f0ec70702c}, !- Name
  {9332623f-f5d3-4e39-b01e-8447466eb516}; !- HVAC Component

OS:PortList,
  {63d8622b-4f7e-4c02-9b0e-46dfaa277532}, !- Handle
  {c72ae1ce-298f-4e47-b5b9-66df1adf8bfb}, !- Name
  {9332623f-f5d3-4e39-b01e-8447466eb516}, !- HVAC Component
  {7eac9787-b17d-4f23-afdd-3e4aa1ac09e4}; !- Port 1

OS:Sizing:Zone,
  {6751f4c2-f4ea-466e-b6a2-3552771bde0f}, !- Handle
  {9332623f-f5d3-4e39-b01e-8447466eb516}, !- Zone or ZoneList Name
  SupplyAirTemperature,                   !- Zone Cooling Design Supply Air Temperature Input Method
  14,                                     !- Zone Cooling Design Supply Air Temperature {C}
  11.11,                                  !- Zone Cooling Design Supply Air Temperature Difference {deltaC}
  SupplyAirTemperature,                   !- Zone Heating Design Supply Air Temperature Input Method
  40,                                     !- Zone Heating Design Supply Air Temperature {C}
  11.11,                                  !- Zone Heating Design Supply Air Temperature Difference {deltaC}
  0.0085,                                 !- Zone Cooling Design Supply Air Humidity Ratio {kg-H2O/kg-air}
  0.008,                                  !- Zone Heating Design Supply Air Humidity Ratio {kg-H2O/kg-air}
  ,                                       !- Zone Heating Sizing Factor
  ,                                       !- Zone Cooling Sizing Factor
  DesignDay,                              !- Cooling Design Air Flow Method
  ,                                       !- Cooling Design Air Flow Rate {m3/s}
  ,                                       !- Cooling Minimum Air Flow per Zone Floor Area {m3/s-m2}
  ,                                       !- Cooling Minimum Air Flow {m3/s}
  ,                                       !- Cooling Minimum Air Flow Fraction
  DesignDay,                              !- Heating Design Air Flow Method
  ,                                       !- Heating Design Air Flow Rate {m3/s}
  ,                                       !- Heating Maximum Air Flow per Zone Floor Area {m3/s-m2}
  ,                                       !- Heating Maximum Air Flow {m3/s}
  ,                                       !- Heating Maximum Air Flow Fraction
  ,                                       !- Design Zone Air Distribution Effectiveness in Cooling Mode
  ,                                       !- Design Zone Air Distribution Effectiveness in Heating Mode
  No,                                     !- Account for Dedicated Outdoor Air System
  NeutralSupplyAir,                       !- Dedicated Outdoor Air System Control Strategy
  autosize,                               !- Dedicated Outdoor Air Low Setpoint Temperature for Design {C}
  autosize;                               !- Dedicated Outdoor Air High Setpoint Temperature for Design {C}

OS:ZoneHVAC:EquipmentList,
  {436ab3ac-1262-4f3e-95ec-f7ccf8f01098}, !- Handle
  Zone HVAC Equipment List 1,             !- Name
  {9332623f-f5d3-4e39-b01e-8447466eb516}, !- Thermal Zone
  SequentialLoad,                         !- Load Distribution Scheme
  {1a48bcf6-a73d-4757-a043-022afc81d90d}, !- Zone Equipment 1
  1,                                      !- Zone Equipment Cooling Sequence 1
  1,                                      !- Zone Equipment Heating or No-Load Sequence 1
  ,                                       !- Zone Equipment Sequential Cooling Fraction 1
  ;                                       !- Zone Equipment Sequential Heating Fraction 1

OS:Space,
  {c88056fe-7674-4ba9-b29e-b250cdeae547}, !- Handle
  living space,                           !- Name
  {1e71f528-b739-47b6-9f9a-5eb76c7c7400}, !- Space Type Name
  ,                                       !- Default Construction Set Name
  ,                                       !- Default Schedule Set Name
  ,                                       !- Direction of Relative North {deg}
  ,                                       !- X Origin {m}
  ,                                       !- Y Origin {m}
  ,                                       !- Z Origin {m}
  ,                                       !- Building Story Name
  {9332623f-f5d3-4e39-b01e-8447466eb516}, !- Thermal Zone Name
  ,                                       !- Part of Total Floor Area
  ,                                       !- Design Specification Outdoor Air Object Name
  {b466dbea-415e-4cef-9b0d-35c106e5258c}; !- Building Unit Name

OS:Surface,
  {8c133828-1ce8-488d-854e-4ea08839714e}, !- Handle
  Surface 1,                              !- Name
  Floor,                                  !- Surface Type
  ,                                       !- Construction Name
  {c88056fe-7674-4ba9-b29e-b250cdeae547}, !- Space Name
  Foundation,                             !- Outside Boundary Condition
  ,                                       !- Outside Boundary Condition Object
  NoSun,                                  !- Sun Exposure
  NoWind,                                 !- Wind Exposure
  ,                                       !- View Factor to Ground
  ,                                       !- Number of Vertices
  0, -12.9315688143396, 0,                !- X,Y,Z Vertex 1 {m}
  0, 0, 0,                                !- X,Y,Z Vertex 2 {m}
  6.46578440716979, 0, 0,                 !- X,Y,Z Vertex 3 {m}
  6.46578440716979, -12.9315688143396, 0; !- X,Y,Z Vertex 4 {m}

OS:Surface,
  {87f5dbbf-abd6-4934-8989-0f5f2367fcea}, !- Handle
  Surface 2,                              !- Name
  Wall,                                   !- Surface Type
  ,                                       !- Construction Name
  {c88056fe-7674-4ba9-b29e-b250cdeae547}, !- Space Name
  Outdoors,                               !- Outside Boundary Condition
  ,                                       !- Outside Boundary Condition Object
  SunExposed,                             !- Sun Exposure
  WindExposed,                            !- Wind Exposure
  ,                                       !- View Factor to Ground
  ,                                       !- Number of Vertices
  0, 0, 2.4384,                           !- X,Y,Z Vertex 1 {m}
  0, 0, 0,                                !- X,Y,Z Vertex 2 {m}
  0, -12.9315688143396, 0,                !- X,Y,Z Vertex 3 {m}
  0, -12.9315688143396, 2.4384;           !- X,Y,Z Vertex 4 {m}

OS:Surface,
  {03d2937f-f13f-48d8-96f6-bd9f4a1f5912}, !- Handle
  Surface 3,                              !- Name
  Wall,                                   !- Surface Type
  ,                                       !- Construction Name
  {c88056fe-7674-4ba9-b29e-b250cdeae547}, !- Space Name
  Outdoors,                               !- Outside Boundary Condition
  ,                                       !- Outside Boundary Condition Object
  SunExposed,                             !- Sun Exposure
  WindExposed,                            !- Wind Exposure
  ,                                       !- View Factor to Ground
  ,                                       !- Number of Vertices
  6.46578440716979, 0, 2.4384,            !- X,Y,Z Vertex 1 {m}
  6.46578440716979, 0, 0,                 !- X,Y,Z Vertex 2 {m}
  0, 0, 0,                                !- X,Y,Z Vertex 3 {m}
  0, 0, 2.4384;                           !- X,Y,Z Vertex 4 {m}

OS:Surface,
  {6268c26d-3bc6-43fe-9a35-85559b1abb63}, !- Handle
  Surface 4,                              !- Name
  Wall,                                   !- Surface Type
  ,                                       !- Construction Name
  {c88056fe-7674-4ba9-b29e-b250cdeae547}, !- Space Name
  Surface,                                !- Outside Boundary Condition
  {450d64cf-5a85-4448-856e-21fc8fa161e0}, !- Outside Boundary Condition Object
  NoSun,                                  !- Sun Exposure
  NoWind,                                 !- Wind Exposure
  ,                                       !- View Factor to Ground
  ,                                       !- Number of Vertices
  6.46578440716979, -12.9315688143396, 2.4384, !- X,Y,Z Vertex 1 {m}
  6.46578440716979, -12.9315688143396, 0, !- X,Y,Z Vertex 2 {m}
  6.46578440716979, 0, 0,                 !- X,Y,Z Vertex 3 {m}
  6.46578440716979, 0, 2.4384;            !- X,Y,Z Vertex 4 {m}

OS:Surface,
  {3b34606d-2081-430e-b6e3-e5b136dc84bb}, !- Handle
  Surface 5,                              !- Name
  Wall,                                   !- Surface Type
  ,                                       !- Construction Name
  {c88056fe-7674-4ba9-b29e-b250cdeae547}, !- Space Name
  Outdoors,                               !- Outside Boundary Condition
  ,                                       !- Outside Boundary Condition Object
  SunExposed,                             !- Sun Exposure
  WindExposed,                            !- Wind Exposure
  ,                                       !- View Factor to Ground
  ,                                       !- Number of Vertices
  0, -12.9315688143396, 2.4384,           !- X,Y,Z Vertex 1 {m}
  0, -12.9315688143396, 0,                !- X,Y,Z Vertex 2 {m}
  6.46578440716979, -12.9315688143396, 0, !- X,Y,Z Vertex 3 {m}
  6.46578440716979, -12.9315688143396, 2.4384; !- X,Y,Z Vertex 4 {m}

OS:Surface,
  {f9e39360-1de2-4002-93f0-16b674aa7e36}, !- Handle
  Surface 6,                              !- Name
  RoofCeiling,                            !- Surface Type
  ,                                       !- Construction Name
  {c88056fe-7674-4ba9-b29e-b250cdeae547}, !- Space Name
  Surface,                                !- Outside Boundary Condition
  {f469af5c-4bdb-49ec-8676-c5a6c0394d3f}, !- Outside Boundary Condition Object
  NoSun,                                  !- Sun Exposure
  NoWind,                                 !- Wind Exposure
  ,                                       !- View Factor to Ground
  ,                                       !- Number of Vertices
  6.46578440716979, -12.9315688143396, 2.4384, !- X,Y,Z Vertex 1 {m}
  6.46578440716979, 0, 2.4384,            !- X,Y,Z Vertex 2 {m}
  0, 0, 2.4384,                           !- X,Y,Z Vertex 3 {m}
  0, -12.9315688143396, 2.4384;           !- X,Y,Z Vertex 4 {m}

OS:SpaceType,
  {1e71f528-b739-47b6-9f9a-5eb76c7c7400}, !- Handle
  Space Type 1,                           !- Name
  ,                                       !- Default Construction Set Name
  ,                                       !- Default Schedule Set Name
  ,                                       !- Group Rendering Name
  ,                                       !- Design Specification Outdoor Air Object Name
  ,                                       !- Standards Template
  ,                                       !- Standards Building Type
  living;                                 !- Standards Space Type

OS:ThermalZone,
  {40cf59a3-871e-47c0-8b6c-78355bcea06f}, !- Handle
  living zone|unit 2,                     !- Name
  ,                                       !- Multiplier
  ,                                       !- Ceiling Height {m}
  ,                                       !- Volume {m3}
  ,                                       !- Floor Area {m2}
  ,                                       !- Zone Inside Convection Algorithm
  ,                                       !- Zone Outside Convection Algorithm
  ,                                       !- Zone Conditioning Equipment List Name
  {9ab18fe5-8f5d-4b69-a307-38ef4c1b7a3f}, !- Zone Air Inlet Port List
  {ce116961-1394-49c8-9819-cde5d497eed9}, !- Zone Air Exhaust Port List
  {c2c2147a-3445-47b2-bb14-52ca49228fb7}, !- Zone Air Node Name
  {85f7a805-1f97-4e03-a831-835f34745baa}, !- Zone Return Air Port List
  ,                                       !- Primary Daylighting Control Name
  ,                                       !- Fraction of Zone Controlled by Primary Daylighting Control
  ,                                       !- Secondary Daylighting Control Name
  ,                                       !- Fraction of Zone Controlled by Secondary Daylighting Control
  ,                                       !- Illuminance Map Name
  ,                                       !- Group Rendering Name
  ,                                       !- Thermostat Name
  No;                                     !- Use Ideal Air Loads

OS:Node,
  {03c14ebd-8659-418c-af33-0673861d0930}, !- Handle
  Node 2,                                 !- Name
  {c2c2147a-3445-47b2-bb14-52ca49228fb7}, !- Inlet Port
  ;                                       !- Outlet Port

OS:Connection,
  {c2c2147a-3445-47b2-bb14-52ca49228fb7}, !- Handle
  {7971b81f-ebc2-48c7-8024-6960ff4008d8}, !- Name
  {40cf59a3-871e-47c0-8b6c-78355bcea06f}, !- Source Object
  11,                                     !- Outlet Port
  {03c14ebd-8659-418c-af33-0673861d0930}, !- Target Object
  2;                                      !- Inlet Port

OS:PortList,
  {9ab18fe5-8f5d-4b69-a307-38ef4c1b7a3f}, !- Handle
  {b2a276b9-4753-4f32-a20a-048ea9dfbd0c}, !- Name
  {40cf59a3-871e-47c0-8b6c-78355bcea06f}, !- HVAC Component
  {e9276638-82d8-47a4-9a9e-026b9e3a16cf}; !- Port 1

OS:PortList,
  {ce116961-1394-49c8-9819-cde5d497eed9}, !- Handle
  {3cd04175-ea54-4d56-a313-13efd6934396}, !- Name
  {40cf59a3-871e-47c0-8b6c-78355bcea06f}; !- HVAC Component

OS:PortList,
  {85f7a805-1f97-4e03-a831-835f34745baa}, !- Handle
  {ad259fd4-2ba1-41ea-9bba-f190d985880d}, !- Name
  {40cf59a3-871e-47c0-8b6c-78355bcea06f}, !- HVAC Component
  {b1b7fd26-f958-457e-b51c-26efac291522}; !- Port 1

OS:Sizing:Zone,
  {c1211c27-7a50-48fb-83fa-c7e39cda05bd}, !- Handle
  {40cf59a3-871e-47c0-8b6c-78355bcea06f}, !- Zone or ZoneList Name
  SupplyAirTemperature,                   !- Zone Cooling Design Supply Air Temperature Input Method
  14,                                     !- Zone Cooling Design Supply Air Temperature {C}
  11.11,                                  !- Zone Cooling Design Supply Air Temperature Difference {deltaC}
  SupplyAirTemperature,                   !- Zone Heating Design Supply Air Temperature Input Method
  40,                                     !- Zone Heating Design Supply Air Temperature {C}
  11.11,                                  !- Zone Heating Design Supply Air Temperature Difference {deltaC}
  0.0085,                                 !- Zone Cooling Design Supply Air Humidity Ratio {kg-H2O/kg-air}
  0.008,                                  !- Zone Heating Design Supply Air Humidity Ratio {kg-H2O/kg-air}
  ,                                       !- Zone Heating Sizing Factor
  ,                                       !- Zone Cooling Sizing Factor
  DesignDay,                              !- Cooling Design Air Flow Method
  ,                                       !- Cooling Design Air Flow Rate {m3/s}
  ,                                       !- Cooling Minimum Air Flow per Zone Floor Area {m3/s-m2}
  ,                                       !- Cooling Minimum Air Flow {m3/s}
  ,                                       !- Cooling Minimum Air Flow Fraction
  DesignDay,                              !- Heating Design Air Flow Method
  ,                                       !- Heating Design Air Flow Rate {m3/s}
  ,                                       !- Heating Maximum Air Flow per Zone Floor Area {m3/s-m2}
  ,                                       !- Heating Maximum Air Flow {m3/s}
  ,                                       !- Heating Maximum Air Flow Fraction
  ,                                       !- Design Zone Air Distribution Effectiveness in Cooling Mode
  ,                                       !- Design Zone Air Distribution Effectiveness in Heating Mode
  No,                                     !- Account for Dedicated Outdoor Air System
  NeutralSupplyAir,                       !- Dedicated Outdoor Air System Control Strategy
  autosize,                               !- Dedicated Outdoor Air Low Setpoint Temperature for Design {C}
  autosize;                               !- Dedicated Outdoor Air High Setpoint Temperature for Design {C}

OS:ZoneHVAC:EquipmentList,
  {53b3958a-e363-4a8c-9a37-d1d5bb061729}, !- Handle
  Zone HVAC Equipment List 2,             !- Name
  {40cf59a3-871e-47c0-8b6c-78355bcea06f}, !- Thermal Zone
  SequentialLoad,                         !- Load Distribution Scheme
  {ff9d2d17-4d49-4fc6-a9eb-0f28839abe77}, !- Zone Equipment 1
  1,                                      !- Zone Equipment Cooling Sequence 1
  1,                                      !- Zone Equipment Heating or No-Load Sequence 1
  ,                                       !- Zone Equipment Sequential Cooling Fraction 1
  ;                                       !- Zone Equipment Sequential Heating Fraction 1

OS:Space,
  {5c62e761-32c9-40b6-bf9a-5bb2b3f8f202}, !- Handle
  living space|unit 2|story 1,            !- Name
  {1e71f528-b739-47b6-9f9a-5eb76c7c7400}, !- Space Type Name
  ,                                       !- Default Construction Set Name
  ,                                       !- Default Schedule Set Name
  -0,                                     !- Direction of Relative North {deg}
  0,                                      !- X Origin {m}
  0,                                      !- Y Origin {m}
  0,                                      !- Z Origin {m}
  ,                                       !- Building Story Name
  {40cf59a3-871e-47c0-8b6c-78355bcea06f}, !- Thermal Zone Name
  ,                                       !- Part of Total Floor Area
  ,                                       !- Design Specification Outdoor Air Object Name
  {6b082688-6dd8-4b0d-b3a6-5601a5143958}; !- Building Unit Name

OS:Surface,
  {81603e6e-b73e-4852-b372-b4f202ae9e3d}, !- Handle
  Surface 12,                             !- Name
  Wall,                                   !- Surface Type
  ,                                       !- Construction Name
  {5c62e761-32c9-40b6-bf9a-5bb2b3f8f202}, !- Space Name
  Surface,                                !- Outside Boundary Condition
  {fe1d957f-9a10-49ef-b465-d62c8696e728}, !- Outside Boundary Condition Object
  NoSun,                                  !- Sun Exposure
  NoWind,                                 !- Wind Exposure
  ,                                       !- View Factor to Ground
  ,                                       !- Number of Vertices
  12.9315688143396, -12.9315688143396, 2.4384, !- X,Y,Z Vertex 1 {m}
  12.9315688143396, -12.9315688143396, 0, !- X,Y,Z Vertex 2 {m}
  12.9315688143396, 0, 0,                 !- X,Y,Z Vertex 3 {m}
  12.9315688143396, 0, 2.4384;            !- X,Y,Z Vertex 4 {m}

OS:Surface,
  {450d64cf-5a85-4448-856e-21fc8fa161e0}, !- Handle
  Surface 13,                             !- Name
  Wall,                                   !- Surface Type
  ,                                       !- Construction Name
  {5c62e761-32c9-40b6-bf9a-5bb2b3f8f202}, !- Space Name
  Surface,                                !- Outside Boundary Condition
  {6268c26d-3bc6-43fe-9a35-85559b1abb63}, !- Outside Boundary Condition Object
  NoSun,                                  !- Sun Exposure
  NoWind,                                 !- Wind Exposure
  ,                                       !- View Factor to Ground
  ,                                       !- Number of Vertices
  6.46578440716979, 0, 2.4384,            !- X,Y,Z Vertex 1 {m}
  6.46578440716979, 0, 0,                 !- X,Y,Z Vertex 2 {m}
  6.46578440716979, -12.9315688143396, 0, !- X,Y,Z Vertex 3 {m}
  6.46578440716979, -12.9315688143396, 2.4384; !- X,Y,Z Vertex 4 {m}

OS:Surface,
  {b6c36a41-40ec-44ba-abdb-dfb4ab6c390b}, !- Handle
  Surface 14,                             !- Name
  Wall,                                   !- Surface Type
  ,                                       !- Construction Name
  {5c62e761-32c9-40b6-bf9a-5bb2b3f8f202}, !- Space Name
  Outdoors,                               !- Outside Boundary Condition
  ,                                       !- Outside Boundary Condition Object
  SunExposed,                             !- Sun Exposure
  WindExposed,                            !- Wind Exposure
  ,                                       !- View Factor to Ground
  ,                                       !- Number of Vertices
  6.46578440716979, -12.9315688143396, 2.4384, !- X,Y,Z Vertex 1 {m}
  6.46578440716979, -12.9315688143396, 0, !- X,Y,Z Vertex 2 {m}
  12.9315688143396, -12.9315688143396, 0, !- X,Y,Z Vertex 3 {m}
  12.9315688143396, -12.9315688143396, 2.4384; !- X,Y,Z Vertex 4 {m}

OS:Surface,
  {628f972f-80ee-45a4-8db3-6c93941a74af}, !- Handle
  Surface 15,                             !- Name
  RoofCeiling,                            !- Surface Type
  ,                                       !- Construction Name
  {5c62e761-32c9-40b6-bf9a-5bb2b3f8f202}, !- Space Name
  Surface,                                !- Outside Boundary Condition
  {acdde4f9-bc82-442c-8b7a-6a72f134ede6}, !- Outside Boundary Condition Object
  NoSun,                                  !- Sun Exposure
  NoWind,                                 !- Wind Exposure
  ,                                       !- View Factor to Ground
  ,                                       !- Number of Vertices
  12.9315688143396, -12.9315688143396, 2.4384, !- X,Y,Z Vertex 1 {m}
  12.9315688143396, 0, 2.4384,            !- X,Y,Z Vertex 2 {m}
  6.46578440716979, 0, 2.4384,            !- X,Y,Z Vertex 3 {m}
  6.46578440716979, -12.9315688143396, 2.4384; !- X,Y,Z Vertex 4 {m}

OS:Surface,
  {43411d63-6ba0-4300-bef7-fea627ad91d1}, !- Handle
  Surface 16,                             !- Name
  Wall,                                   !- Surface Type
  ,                                       !- Construction Name
  {5c62e761-32c9-40b6-bf9a-5bb2b3f8f202}, !- Space Name
  Outdoors,                               !- Outside Boundary Condition
  ,                                       !- Outside Boundary Condition Object
  SunExposed,                             !- Sun Exposure
  WindExposed,                            !- Wind Exposure
  ,                                       !- View Factor to Ground
  ,                                       !- Number of Vertices
  12.9315688143396, 0, 2.4384,            !- X,Y,Z Vertex 1 {m}
  12.9315688143396, 0, 0,                 !- X,Y,Z Vertex 2 {m}
  6.46578440716979, 0, 0,                 !- X,Y,Z Vertex 3 {m}
  6.46578440716979, 0, 2.4384;            !- X,Y,Z Vertex 4 {m}

OS:Surface,
  {8782f117-77b5-4ace-a500-6b5558ddca62}, !- Handle
  Surface 17,                             !- Name
  Floor,                                  !- Surface Type
  ,                                       !- Construction Name