!- NOTE: Auto-generated from /test/osw_files/SFA_4units_1story_FB_UA_3Beds_2Baths_Denver_WHTank_HWFixtures.osw

OS:Version,
  {fa4cadb8-4771-42a9-995c-f02741e5879c}, !- Handle
  2.8.1;                                  !- Version Identifier

OS:SimulationControl,
  {1d4e8796-6cb9-45cc-86ea-4f5e4dbcd06e}, !- Handle
  ,                                       !- Do Zone Sizing Calculation
  ,                                       !- Do System Sizing Calculation
  ,                                       !- Do Plant Sizing Calculation
  No;                                     !- Run Simulation for Sizing Periods

OS:Timestep,
  {40a40a48-a09d-415d-b9f3-6944c60fddef}, !- Handle
  6;                                      !- Number of Timesteps per Hour

OS:ShadowCalculation,
  {38b5a198-540f-43b1-8935-8f084f390f05}, !- Handle
  20,                                     !- Calculation Frequency
  200;                                    !- Maximum Figures in Shadow Overlap Calculations

OS:SurfaceConvectionAlgorithm:Outside,
  {6fbac440-3ea5-490c-a984-9556e9d030e3}, !- Handle
  DOE-2;                                  !- Algorithm

OS:SurfaceConvectionAlgorithm:Inside,
  {562290b1-22c4-41f2-8b16-b205e08c705f}, !- Handle
  TARP;                                   !- Algorithm

OS:ZoneCapacitanceMultiplier:ResearchSpecial,
  {9f6966bd-04b5-4354-bee0-571c6c0fb914}, !- Handle
  ,                                       !- Temperature Capacity Multiplier
  15,                                     !- Humidity Capacity Multiplier
  ;                                       !- Carbon Dioxide Capacity Multiplier

OS:RunPeriod,
  {df736244-cc2c-49d9-ab18-5a843dcc4a81}, !- Handle
  Run Period 1,                           !- Name
  1,                                      !- Begin Month
  1,                                      !- Begin Day of Month
  12,                                     !- End Month
  31,                                     !- End Day of Month
  ,                                       !- Use Weather File Holidays and Special Days
  ,                                       !- Use Weather File Daylight Saving Period
  ,                                       !- Apply Weekend Holiday Rule
  ,                                       !- Use Weather File Rain Indicators
  ,                                       !- Use Weather File Snow Indicators
  ;                                       !- Number of Times Runperiod to be Repeated

OS:YearDescription,
  {38ea5a64-f660-4b1d-8993-e461697b4dc5}, !- Handle
  2007,                                   !- Calendar Year
  ,                                       !- Day of Week for Start Day
  ;                                       !- Is Leap Year

OS:ThermalZone,
  {a9e41f8a-e669-4f3a-ab2b-972f967553d3}, !- Handle
  living zone,                            !- Name
  ,                                       !- Multiplier
  ,                                       !- Ceiling Height {m}
  ,                                       !- Volume {m3}
  ,                                       !- Floor Area {m2}
  ,                                       !- Zone Inside Convection Algorithm
  ,                                       !- Zone Outside Convection Algorithm
  ,                                       !- Zone Conditioning Equipment List Name
  {5036eefb-ae3d-4c36-a107-029e88e62a8e}, !- Zone Air Inlet Port List
  {172592d8-83f7-471e-b93c-3813480e8c7d}, !- Zone Air Exhaust Port List
  {fe9e15f3-e568-4a7d-957e-13f670bf3576}, !- Zone Air Node Name
  {d3d2072d-128d-4c41-9a96-07d46c188638}, !- Zone Return Air Port List
  ,                                       !- Primary Daylighting Control Name
  ,                                       !- Fraction of Zone Controlled by Primary Daylighting Control
  ,                                       !- Secondary Daylighting Control Name
  ,                                       !- Fraction of Zone Controlled by Secondary Daylighting Control
  ,                                       !- Illuminance Map Name
  ,                                       !- Group Rendering Name
  ,                                       !- Thermostat Name
  No;                                     !- Use Ideal Air Loads

OS:Node,
  {40680c99-883d-44a1-b8d7-561093fa28a1}, !- Handle
  Node 1,                                 !- Name
  {fe9e15f3-e568-4a7d-957e-13f670bf3576}, !- Inlet Port
  ;                                       !- Outlet Port

OS:Connection,
  {fe9e15f3-e568-4a7d-957e-13f670bf3576}, !- Handle
  {49758ca3-a941-4984-8550-fced9c7e00fb}, !- Name
  {a9e41f8a-e669-4f3a-ab2b-972f967553d3}, !- Source Object
  11,                                     !- Outlet Port
  {40680c99-883d-44a1-b8d7-561093fa28a1}, !- Target Object
  2;                                      !- Inlet Port

OS:PortList,
  {5036eefb-ae3d-4c36-a107-029e88e62a8e}, !- Handle
  {c112cef6-d323-4f04-88f5-c7e07e87069e}, !- Name
  {a9e41f8a-e669-4f3a-ab2b-972f967553d3}; !- HVAC Component

OS:PortList,
  {172592d8-83f7-471e-b93c-3813480e8c7d}, !- Handle
  {8eb4bdb3-c634-427a-bf5c-2b43352a89a2}, !- Name
  {a9e41f8a-e669-4f3a-ab2b-972f967553d3}; !- HVAC Component

OS:PortList,
  {d3d2072d-128d-4c41-9a96-07d46c188638}, !- Handle
  {a28ae86f-857d-43e1-991f-3a325df93da8}, !- Name
  {a9e41f8a-e669-4f3a-ab2b-972f967553d3}; !- HVAC Component

OS:Sizing:Zone,
  {f34a18e9-8843-44cb-9ca4-f2c9ddae1779}, !- Handle
  {a9e41f8a-e669-4f3a-ab2b-972f967553d3}, !- Zone or ZoneList Name
  SupplyAirTemperature,                   !- Zone Cooling Design Supply Air Temperature Input Method
  14,                                     !- Zone Cooling Design Supply Air Temperature {C}
  11.11,                                  !- Zone Cooling Design Supply Air Temperature Difference {deltaC}
  SupplyAirTemperature,                   !- Zone Heating Design Supply Air Temperature Input Method
  40,                                     !- Zone Heating Design Supply Air Temperature {C}
  11.11,                                  !- Zone Heating Design Supply Air Temperature Difference {deltaC}
  0.0085,                                 !- Zone Cooling Design Supply Air Humidity Ratio {kg-H2O/kg-air}
  0.008,                                  !- Zone Heating Design Supply Air Humidity Ratio {kg-H2O/kg-air}
  ,                                       !- Zone Heating Sizing Factor
  ,                                       !- Zone Cooling Sizing Factor
  DesignDay,                              !- Cooling Design Air Flow Method
  ,                                       !- Cooling Design Air Flow Rate {m3/s}
  ,                                       !- Cooling Minimum Air Flow per Zone Floor Area {m3/s-m2}
  ,                                       !- Cooling Minimum Air Flow {m3/s}
  ,                                       !- Cooling Minimum Air Flow Fraction
  DesignDay,                              !- Heating Design Air Flow Method
  ,                                       !- Heating Design Air Flow Rate {m3/s}
  ,                                       !- Heating Maximum Air Flow per Zone Floor Area {m3/s-m2}
  ,                                       !- Heating Maximum Air Flow {m3/s}
  ,                                       !- Heating Maximum Air Flow Fraction
  ,                                       !- Design Zone Air Distribution Effectiveness in Cooling Mode
  ,                                       !- Design Zone Air Distribution Effectiveness in Heating Mode
  No,                                     !- Account for Dedicated Outdoor Air System
  NeutralSupplyAir,                       !- Dedicated Outdoor Air System Control Strategy
  autosize,                               !- Dedicated Outdoor Air Low Setpoint Temperature for Design {C}
  autosize;                               !- Dedicated Outdoor Air High Setpoint Temperature for Design {C}

OS:ZoneHVAC:EquipmentList,
  {bf2d2abb-c844-4068-b159-160bccfaaa96}, !- Handle
  Zone HVAC Equipment List 1,             !- Name
  {a9e41f8a-e669-4f3a-ab2b-972f967553d3}; !- Thermal Zone

OS:Space,
  {deef9230-42eb-46eb-96bb-7e5d36ccb347}, !- Handle
  living space,                           !- Name
  {2b4b1fe7-bf80-44f9-b9b4-071db19e4ebc}, !- Space Type Name
  ,                                       !- Default Construction Set Name
  ,                                       !- Default Schedule Set Name
  ,                                       !- Direction of Relative North {deg}
  ,                                       !- X Origin {m}
  ,                                       !- Y Origin {m}
  ,                                       !- Z Origin {m}
  ,                                       !- Building Story Name
  {a9e41f8a-e669-4f3a-ab2b-972f967553d3}, !- Thermal Zone Name
  ,                                       !- Part of Total Floor Area
  ,                                       !- Design Specification Outdoor Air Object Name
  {662c37dc-45ef-48f3-8a7d-3669e2ac7e2f}; !- Building Unit Name

OS:Surface,
  {8c80fa54-434e-45d9-a352-edc9880dfc02}, !- Handle
  Surface 1,                              !- Name
  Floor,                                  !- Surface Type
  ,                                       !- Construction Name
  {deef9230-42eb-46eb-96bb-7e5d36ccb347}, !- Space Name
  Surface,                                !- Outside Boundary Condition
  {53f1e1ed-f179-47c0-b7be-d42ae54089fd}, !- Outside Boundary Condition Object
  NoSun,                                  !- Sun Exposure
  NoWind,                                 !- Wind Exposure
  ,                                       !- View Factor to Ground
  ,                                       !- Number of Vertices
  0, -9.144, 0,                           !- X,Y,Z Vertex 1 {m}
  0, 0, 0,                                !- X,Y,Z Vertex 2 {m}
  4.572, 0, 0,                            !- X,Y,Z Vertex 3 {m}
  4.572, -9.144, 0;                       !- X,Y,Z Vertex 4 {m}

OS:Surface,
  {11a8f386-1b3a-4719-82a2-201b9079b3c8}, !- Handle
  Surface 2,                              !- Name
  Wall,                                   !- Surface Type
  ,                                       !- Construction Name
  {deef9230-42eb-46eb-96bb-7e5d36ccb347}, !- Space Name
  Outdoors,                               !- Outside Boundary Condition
  ,                                       !- Outside Boundary Condition Object
  SunExposed,                             !- Sun Exposure
  WindExposed,                            !- Wind Exposure
  ,                                       !- View Factor to Ground
  ,                                       !- Number of Vertices
  0, 0, 2.4384,                           !- X,Y,Z Vertex 1 {m}
  0, 0, 0,                                !- X,Y,Z Vertex 2 {m}
  0, -9.144, 0,                           !- X,Y,Z Vertex 3 {m}
  0, -9.144, 2.4384;                      !- X,Y,Z Vertex 4 {m}

OS:Surface,
  {e6af3061-fd31-4b78-8351-bbb8e6584f14}, !- Handle
  Surface 3,                              !- Name
  Wall,                                   !- Surface Type
  ,                                       !- Construction Name
  {deef9230-42eb-46eb-96bb-7e5d36ccb347}, !- Space Name
  Outdoors,                               !- Outside Boundary Condition
  ,                                       !- Outside Boundary Condition Object
  SunExposed,                             !- Sun Exposure
  WindExposed,                            !- Wind Exposure
  ,                                       !- View Factor to Ground
  ,                                       !- Number of Vertices
  4.572, 0, 2.4384,                       !- X,Y,Z Vertex 1 {m}
  4.572, 0, 0,                            !- X,Y,Z Vertex 2 {m}
  0, 0, 0,                                !- X,Y,Z Vertex 3 {m}
  0, 0, 2.4384;                           !- X,Y,Z Vertex 4 {m}

OS:Surface,
  {3518ac2b-b675-4e50-88dd-f27fcbd1c111}, !- Handle
  Surface 4,                              !- Name
  Wall,                                   !- Surface Type
  ,                                       !- Construction Name
  {deef9230-42eb-46eb-96bb-7e5d36ccb347}, !- Space Name
  Surface,                                !- Outside Boundary Condition
  {db1e6a60-27e9-4e16-b2f7-774b262be1b3}, !- Outside Boundary Condition Object
  NoSun,                                  !- Sun Exposure
  NoWind,                                 !- Wind Exposure
  ,                                       !- View Factor to Ground
  ,                                       !- Number of Vertices
  4.572, -9.144, 2.4384,                  !- X,Y,Z Vertex 1 {m}
  4.572, -9.144, 0,                       !- X,Y,Z Vertex 2 {m}
  4.572, 0, 0,                            !- X,Y,Z Vertex 3 {m}
  4.572, 0, 2.4384;                       !- X,Y,Z Vertex 4 {m}

OS:Surface,
  {c0037905-030c-4c17-bc92-543a7d4bfeb9}, !- Handle
  Surface 5,                              !- Name
  Wall,                                   !- Surface Type
  ,                                       !- Construction Name
  {deef9230-42eb-46eb-96bb-7e5d36ccb347}, !- Space Name
  Outdoors,                               !- Outside Boundary Condition
  ,                                       !- Outside Boundary Condition Object
  SunExposed,                             !- Sun Exposure
  WindExposed,                            !- Wind Exposure
  ,                                       !- View Factor to Ground
  ,                                       !- Number of Vertices
  0, -9.144, 2.4384,                      !- X,Y,Z Vertex 1 {m}
  0, -9.144, 0,                           !- X,Y,Z Vertex 2 {m}
  4.572, -9.144, 0,                       !- X,Y,Z Vertex 3 {m}
  4.572, -9.144, 2.4384;                  !- X,Y,Z Vertex 4 {m}

OS:Surface,
  {db137a84-2eb4-4e01-857c-57f33f2f7108}, !- Handle
  Surface 6,                              !- Name
  RoofCeiling,                            !- Surface Type
  ,                                       !- Construction Name
  {deef9230-42eb-46eb-96bb-7e5d36ccb347}, !- Space Name
  Surface,                                !- Outside Boundary Condition
  {046bd277-327c-47f3-9549-caee9b987366}, !- Outside Boundary Condition Object
  NoSun,                                  !- Sun Exposure
  NoWind,                                 !- Wind Exposure
  ,                                       !- View Factor to Ground
  ,                                       !- Number of Vertices
  4.572, -9.144, 2.4384,                  !- X,Y,Z Vertex 1 {m}
  4.572, 0, 2.4384,                       !- X,Y,Z Vertex 2 {m}
  0, 0, 2.4384,                           !- X,Y,Z Vertex 3 {m}
  0, -9.144, 2.4384;                      !- X,Y,Z Vertex 4 {m}

OS:SpaceType,
  {2b4b1fe7-bf80-44f9-b9b4-071db19e4ebc}, !- Handle
  Space Type 1,                           !- Name
  ,                                       !- Default Construction Set Name
  ,                                       !- Default Schedule Set Name
  ,                                       !- Group Rendering Name
  ,                                       !- Design Specification Outdoor Air Object Name
  ,                                       !- Standards Template
  ,                                       !- Standards Building Type
  living;                                 !- Standards Space Type

OS:ThermalZone,
  {e96850fc-c0e1-4183-8679-cc61d588d7d9}, !- Handle
  living zone|unit 2,                     !- Name
  ,                                       !- Multiplier
  ,                                       !- Ceiling Height {m}
  ,                                       !- Volume {m3}
  ,                                       !- Floor Area {m2}
  ,                                       !- Zone Inside Convection Algorithm
  ,                                       !- Zone Outside Convection Algorithm
  ,                                       !- Zone Conditioning Equipment List Name
  {20ebb9b4-3fa1-4178-a435-952b8483de28}, !- Zone Air Inlet Port List
  {4e70a5d1-8408-4f3a-bad4-206d2ed3c47d}, !- Zone Air Exhaust Port List
  {ba737d50-dbf0-4154-8638-30d74b22ef70}, !- Zone Air Node Name
  {1303972b-17b3-4d23-87b0-ba85472e5e4b}, !- Zone Return Air Port List
  ,                                       !- Primary Daylighting Control Name
  ,                                       !- Fraction of Zone Controlled by Primary Daylighting Control
  ,                                       !- Secondary Daylighting Control Name
  ,                                       !- Fraction of Zone Controlled by Secondary Daylighting Control
  ,                                       !- Illuminance Map Name
  ,                                       !- Group Rendering Name
  ,                                       !- Thermostat Name
  No;                                     !- Use Ideal Air Loads

OS:Node,
  {086be620-e9be-4261-8e14-cf050b0fd28d}, !- Handle
  Node 2,                                 !- Name
  {ba737d50-dbf0-4154-8638-30d74b22ef70}, !- Inlet Port
  ;                                       !- Outlet Port

OS:Connection,
  {ba737d50-dbf0-4154-8638-30d74b22ef70}, !- Handle
  {672a1b55-7b96-4749-bc7a-24e12fa42086}, !- Name
  {e96850fc-c0e1-4183-8679-cc61d588d7d9}, !- Source Object
  11,                                     !- Outlet Port
  {086be620-e9be-4261-8e14-cf050b0fd28d}, !- Target Object
  2;                                      !- Inlet Port

OS:PortList,
  {20ebb9b4-3fa1-4178-a435-952b8483de28}, !- Handle
  {3bb3d672-63d3-4aeb-b4e0-de2c17b60f49}, !- Name
  {e96850fc-c0e1-4183-8679-cc61d588d7d9}; !- HVAC Component

OS:PortList,
  {4e70a5d1-8408-4f3a-bad4-206d2ed3c47d}, !- Handle
  {1da5b115-70b8-40eb-b016-d66889c412d7}, !- Name
  {e96850fc-c0e1-4183-8679-cc61d588d7d9}; !- HVAC Component

OS:PortList,
  {1303972b-17b3-4d23-87b0-ba85472e5e4b}, !- Handle
  {79fd67d8-9051-4f1d-ae5a-91b91893170a}, !- Name
  {e96850fc-c0e1-4183-8679-cc61d588d7d9}; !- HVAC Component

OS:Sizing:Zone,
  {2d60a1fc-7c9a-48b9-8b45-7bf4ddf330ab}, !- Handle
  {e96850fc-c0e1-4183-8679-cc61d588d7d9}, !- Zone or ZoneList Name
  SupplyAirTemperature,                   !- Zone Cooling Design Supply Air Temperature Input Method
  14,                                     !- Zone Cooling Design Supply Air Temperature {C}
  11.11,                                  !- Zone Cooling Design Supply Air Temperature Difference {deltaC}
  SupplyAirTemperature,                   !- Zone Heating Design Supply Air Temperature Input Method
  40,                                     !- Zone Heating Design Supply Air Temperature {C}
  11.11,                                  !- Zone Heating Design Supply Air Temperature Difference {deltaC}
  0.0085,                                 !- Zone Cooling Design Supply Air Humidity Ratio {kg-H2O/kg-air}
  0.008,                                  !- Zone Heating Design Supply Air Humidity Ratio {kg-H2O/kg-air}
  ,                                       !- Zone Heating Sizing Factor
  ,                                       !- Zone Cooling Sizing Factor
  DesignDay,                              !- Cooling Design Air Flow Method
  ,                                       !- Cooling Design Air Flow Rate {m3/s}
  ,                                       !- Cooling Minimum Air Flow per Zone Floor Area {m3/s-m2}
  ,                                       !- Cooling Minimum Air Flow {m3/s}
  ,                                       !- Cooling Minimum Air Flow Fraction
  DesignDay,                              !- Heating Design Air Flow Method
  ,                                       !- Heating Design Air Flow Rate {m3/s}
  ,                                       !- Heating Maximum Air Flow per Zone Floor Area {m3/s-m2}
  ,                                       !- Heating Maximum Air Flow {m3/s}
  ,                                       !- Heating Maximum Air Flow Fraction
  ,                                       !- Design Zone Air Distribution Effectiveness in Cooling Mode
  ,                                       !- Design Zone Air Distribution Effectiveness in Heating Mode
  No,                                     !- Account for Dedicated Outdoor Air System
  NeutralSupplyAir,                       !- Dedicated Outdoor Air System Control Strategy
  autosize,                               !- Dedicated Outdoor Air Low Setpoint Temperature for Design {C}
  autosize;                               !- Dedicated Outdoor Air High Setpoint Temperature for Design {C}

OS:ZoneHVAC:EquipmentList,
  {527520b2-2b46-4fdd-94f6-d2669f4b7653}, !- Handle
  Zone HVAC Equipment List 2,             !- Name
  {e96850fc-c0e1-4183-8679-cc61d588d7d9}; !- Thermal Zone

OS:Space,
  {b7883997-bdb2-491a-88c2-fb8a0bc636ec}, !- Handle
  living space|unit 2|story 1,            !- Name
  {2b4b1fe7-bf80-44f9-b9b4-071db19e4ebc}, !- Space Type Name
  ,                                       !- Default Construction Set Name
  ,                                       !- Default Schedule Set Name
  -0,                                     !- Direction of Relative North {deg}
  0,                                      !- X Origin {m}
  0,                                      !- Y Origin {m}
  0,                                      !- Z Origin {m}
  ,                                       !- Building Story Name
  {e96850fc-c0e1-4183-8679-cc61d588d7d9}, !- Thermal Zone Name
  ,                                       !- Part of Total Floor Area
  ,                                       !- Design Specification Outdoor Air Object Name
  {412952a4-9f93-4ab2-aa10-4ac1e332408d}; !- Building Unit Name

OS:Surface,
  {9c8455db-0dde-4096-81b6-dc16ddaa16b0}, !- Handle
  Surface 12,                             !- Name
  Wall,                                   !- Surface Type
  ,                                       !- Construction Name
  {b7883997-bdb2-491a-88c2-fb8a0bc636ec}, !- Space Name
  Surface,                                !- Outside Boundary Condition
  {eecf220b-475b-4882-afcb-cbf94c47e545}, !- Outside Boundary Condition Object
  NoSun,                                  !- Sun Exposure
  NoWind,                                 !- Wind Exposure
  ,                                       !- View Factor to Ground
  ,                                       !- Number of Vertices
  9.144, -9.144, 2.4384,                  !- X,Y,Z Vertex 1 {m}
  9.144, -9.144, 0,                       !- X,Y,Z Vertex 2 {m}
  9.144, 0, 0,                            !- X,Y,Z Vertex 3 {m}
  9.144, 0, 2.4384;                       !- X,Y,Z Vertex 4 {m}

OS:Surface,
  {165d0675-97cf-4777-90e3-996f884805cd}, !- Handle
  Surface 13,                             !- Name
  RoofCeiling,                            !- Surface Type
  ,                                       !- Construction Name
  {b7883997-bdb2-491a-88c2-fb8a0bc636ec}, !- Space Name
  Surface,                                !- Outside Boundary Condition
  {ed6ceb32-4ee4-4259-b32b-10dede6a3eff}, !- Outside Boundary Condition Object
  NoSun,                                  !- Sun Exposure
  NoWind,                                 !- Wind Exposure
  ,                                       !- View Factor to Ground
  ,                                       !- Number of Vertices
  9.144, -9.144, 2.4384,                  !- X,Y,Z Vertex 1 {m}
  9.144, 0, 2.4384,                       !- X,Y,Z Vertex 2 {m}
  4.572, 0, 2.4384,                       !- X,Y,Z Vertex 3 {m}
  4.572, -9.144, 2.4384;                  !- X,Y,Z Vertex 4 {m}

OS:Surface,
  {db1e6a60-27e9-4e16-b2f7-774b262be1b3}, !- Handle
  Surface 14,                             !- Name
  Wall,                                   !- Surface Type
  ,                                       !- Construction Name
  {b7883997-bdb2-491a-88c2-fb8a0bc636ec}, !- Space Name
  Surface,                                !- Outside Boundary Condition
  {3518ac2b-b675-4e50-88dd-f27fcbd1c111}, !- Outside Boundary Condition Object
  NoSun,                                  !- Sun Exposure
  NoWind,                                 !- Wind Exposure
  ,                                       !- View Factor to Ground
  ,                                       !- Number of Vertices
  4.572, 0, 2.4384,                       !- X,Y,Z Vertex 1 {m}
  4.572, 0, 0,                            !- X,Y,Z Vertex 2 {m}
  4.572, -9.144, 0,                       !- X,Y,Z Vertex 3 {m}
  4.572, -9.144, 2.4384;                  !- X,Y,Z Vertex 4 {m}

OS:Surface,
  {4d3b0df6-0fab-49f2-b172-08c2647e37c0}, !- Handle
  Surface 15,                             !- Name
  Wall,                                   !- Surface Type
  ,                                       !- Construction Name
  {b7883997-bdb2-491a-88c2-fb8a0bc636ec}, !- Space Name
  Outdoors,                               !- Outside Boundary Condition
  ,                                       !- Outside Boundary Condition Object
  SunExposed,                             !- Sun Exposure
  WindExposed,                            !- Wind Exposure
  ,                                       !- View Factor to Ground
  ,                                       !- Number of Vertices
  4.572, -9.144, 2.4384,                  !- X,Y,Z Vertex 1 {m}
  4.572, -9.144, 0,                       !- X,Y,Z Vertex 2 {m}
  9.144, -9.144, 0,                       !- X,Y,Z Vertex 3 {m}
  9.144, -9.144, 2.4384;                  !- X,Y,Z Vertex 4 {m}

OS:Surface,
  {8545b9f8-a1eb-4f4b-8818-92a8aa83868b}, !- Handle
  Surface 16,                             !- Name
  Floor,                                  !- Surface Type
  ,                                       !- Construction Name
  {b7883997-bdb2-491a-88c2-fb8a0bc636ec}, !- Space Name
  Surface,                                !- Outside Boundary Condition
  {341be683-1df1-4ada-a095-3eb7068355aa}, !- Outside Boundary Condition Object
  NoSun,                                  !- Sun Exposure
  NoWind,                                 !- Wind Exposure
  ,                                       !- View Factor to Ground
  ,                                       !- Number of Vertices
  4.572, -9.144, 0,                       !- X,Y,Z Vertex 1 {m}
  4.572, 0, 0,                            !- X,Y,Z Vertex 2 {m}
  9.144, 0, 0,                            !- X,Y,Z Vertex 3 {m}
  9.144, -9.144, 0;                       !- X,Y,Z Vertex 4 {m}

OS:Surface,
  {413cc092-8d02-405e-9d17-6f6c7881af84}, !- Handle
  Surface 17,                             !- Name
  Wall,                                   !- Surface Type
  ,                                       !- Construction Name
  {b7883997-bdb2-491a-88c2-fb8a0bc636ec}, !- Space Name
  Outdoors,                               !- Outside Boundary Condition
  ,                                       !- Outside Boundary Condition Object
  SunExposed,                             !- Sun Exposure
  WindExposed,                            !- Wind Exposure
  ,                                       !- View Factor to Ground
  ,                                       !- Number of Vertices
  9.144, 0, 2.4384,                       !- X,Y,Z Vertex 1 {m}
  9.144, 0, 0,                            !- X,Y,Z Vertex 2 {m}
  4.572, 0, 0,                            !- X,Y,Z Vertex 3 {m}
  4.572, 0, 2.4384;                       !- X,Y,Z Vertex 4 {m}

OS:ThermalZone,
  {9d57d9d9-7ad4-4aa0-917a-da571d9722d2}, !- Handle
  living zone|unit 3,                     !- Name
  ,                                       !- Multiplier
  ,                                       !- Ceiling Height {m}
  ,                                       !- Volume {m3}
  ,                                       !- Floor Area {m2}
  ,                                       !- Zone Inside Convection Algorithm
  ,                                       !- Zone Outside Convection Algorithm
  ,                                       !- Zone Conditioning Equipment List Name
  {3ddf1a22-89de-43f7-a224-cf02217d1e88}, !- Zone Air Inlet Port List
  {c70fd341-fde9-4de7-aec1-35f76337540e}, !- Zone Air Exhaust Port List
  {0a9d7862-5701-4e82-996d-ec3ee8007b1d}, !- Zone Air Node Name
  {c584643a-be39-46b5-aaf1-20a1154698c1}, !- Zone Return Air Port List
  ,                                       !- Primary Daylighting Control Name
  ,                                       !- Fraction of Zone Controlled by Primary Daylighting Control
  ,                                       !- Secondary Daylighting Control Name
  ,                                       !- Fraction of Zone Controlled by Secondary Daylighting Control
  ,                                       !- Illuminance Map Name
  ,                                       !- Group Rendering Name
  ,                                       !- Thermostat Name
  No;                                     !- Use Ideal Air Loads

OS:Node,
  {81c242ae-4438-45c1-87d4-8549d5ac7a84}, !- Handle
  Node 3,                                 !- Name
  {0a9d7862-5701-4e82-996d-ec3ee8007b1d}, !- Inlet Port
  ;                                       !- Outlet Port

OS:Connection,
  {0a9d7862-5701-4e82-996d-ec3ee8007b1d}, !- Handle
  {7602c5b0-107f-4ea5-aa7a-1b490ccb9ef9}, !- Name
  {9d57d9d9-7ad4-4aa0-917a-da571d9722d2}, !- Source Object
  11,                                     !- Outlet Port
  {81c242ae-4438-45c1-87d4-8549d5ac7a84}, !- Target Object
  2;                                      !- Inlet Port

OS:PortList,
  {3ddf1a22-89de-43f7-a224-cf02217d1e88}, !- Handle
  {7d2ee65c-e084-48e7-9e11-861553cc1fdc}, !- Name
  {9d57d9d9-7ad4-4aa0-917a-da571d9722d2}; !- HVAC Component

OS:PortList,
  {c70fd341-fde9-4de7-aec1-35f76337540e}, !- Handle
  {c3f6d1c8-f4b1-41a6-83e7-11a3b5409123}, !- Name
  {9d57d9d9-7ad4-4aa0-917a-da571d9722d2}; !- HVAC Component

OS:PortList,
  {c584643a-be39-46b5-aaf1-20a1154698c1}, !- Handle
  {fb4c56da-a847-4d2a-9888-1e3ef2c959df}, !- Name
  {9d57d9d9-7ad4-4aa0-917a-da571d9722d2}; !- HVAC Component

OS:Sizing:Zone,
  {27e3da37-aac7-44a5-be2b-146de4c5be7a}, !- Handle
  {9d57d9d9-7ad4-4aa0-917a-da571d9722d2}, !- Zone or ZoneList Name