!- NOTE: Auto-generated from /test/osw_files/SFA_HVACSizing_Load_4units_1story_FB_UA.osw

OS:Version,
  {5b5c25ed-d61a-4064-adb3-dfa0e81ae804}, !- Handle
  2.9.0;                                  !- Version Identifier

OS:SimulationControl,
  {40bae2d6-5339-4d57-b91a-6412cb942fb2}, !- Handle
  ,                                       !- Do Zone Sizing Calculation
  ,                                       !- Do System Sizing Calculation
  ,                                       !- Do Plant Sizing Calculation
  No;                                     !- Run Simulation for Sizing Periods

OS:Timestep,
  {4a342db7-bf13-48b0-997c-dc295953bd60}, !- Handle
  6;                                      !- Number of Timesteps per Hour

OS:ShadowCalculation,
  {f156cf7c-2c6b-4988-b0ce-8069656c9557}, !- Handle
  20,                                     !- Calculation Frequency
  200;                                    !- Maximum Figures in Shadow Overlap Calculations

OS:SurfaceConvectionAlgorithm:Outside,
  {2ecd9bdf-ba36-4407-9f2b-3ce238d90b99}, !- Handle
  DOE-2;                                  !- Algorithm

OS:SurfaceConvectionAlgorithm:Inside,
  {86f023b6-a33b-4c53-bcf1-560c52f3671a}, !- Handle
  TARP;                                   !- Algorithm

OS:ZoneCapacitanceMultiplier:ResearchSpecial,
  {4a985dc2-403f-4778-ac61-98720294cdc4}, !- Handle
  ,                                       !- Temperature Capacity Multiplier
  15,                                     !- Humidity Capacity Multiplier
  ;                                       !- Carbon Dioxide Capacity Multiplier

OS:RunPeriod,
  {b2d761a9-d8c7-4791-8d4b-8ce4dad7ec08}, !- Handle
  Run Period 1,                           !- Name
  1,                                      !- Begin Month
  1,                                      !- Begin Day of Month
  12,                                     !- End Month
  31,                                     !- End Day of Month
  ,                                       !- Use Weather File Holidays and Special Days
  ,                                       !- Use Weather File Daylight Saving Period
  ,                                       !- Apply Weekend Holiday Rule
  ,                                       !- Use Weather File Rain Indicators
  ,                                       !- Use Weather File Snow Indicators
  ;                                       !- Number of Times Runperiod to be Repeated

OS:YearDescription,
  {1b23f968-c172-452a-bbee-6f0d74de0954}, !- Handle
  2007,                                   !- Calendar Year
  ,                                       !- Day of Week for Start Day
  ;                                       !- Is Leap Year

OS:WeatherFile,
  {a3474edc-5441-42a4-838d-55fdfbaef48c}, !- Handle
  Denver Intl Ap,                         !- City
  CO,                                     !- State Province Region
  USA,                                    !- Country
  TMY3,                                   !- Data Source
  725650,                                 !- WMO Number
  39.83,                                  !- Latitude {deg}
  -104.65,                                !- Longitude {deg}
  -7,                                     !- Time Zone {hr}
  1650,                                   !- Elevation {m}
  file:../weather/USA_CO_Denver.Intl.AP.725650_TMY3.epw, !- Url
  E23378AA;                               !- Checksum

OS:AdditionalProperties,
  {83e74f11-1b07-4685-b1b0-d1eee0893cf4}, !- Handle
  {a3474edc-5441-42a4-838d-55fdfbaef48c}, !- Object Name
  EPWHeaderCity,                          !- Feature Name 1
  String,                                 !- Feature Data Type 1
  Denver Intl Ap,                         !- Feature Value 1
  EPWHeaderState,                         !- Feature Name 2
  String,                                 !- Feature Data Type 2
  CO,                                     !- Feature Value 2
  EPWHeaderCountry,                       !- Feature Name 3
  String,                                 !- Feature Data Type 3
  USA,                                    !- Feature Value 3
  EPWHeaderDataSource,                    !- Feature Name 4
  String,                                 !- Feature Data Type 4
  TMY3,                                   !- Feature Value 4
  EPWHeaderStation,                       !- Feature Name 5
  String,                                 !- Feature Data Type 5
  725650,                                 !- Feature Value 5
  EPWHeaderLatitude,                      !- Feature Name 6
  Double,                                 !- Feature Data Type 6
  39.829999999999998,                     !- Feature Value 6
  EPWHeaderLongitude,                     !- Feature Name 7
  Double,                                 !- Feature Data Type 7
  -104.65000000000001,                    !- Feature Value 7
  EPWHeaderTimezone,                      !- Feature Name 8
  Double,                                 !- Feature Data Type 8
  -7,                                     !- Feature Value 8
  EPWHeaderAltitude,                      !- Feature Name 9
  Double,                                 !- Feature Data Type 9
  5413.3858267716532,                     !- Feature Value 9
  EPWHeaderLocalPressure,                 !- Feature Name 10
  Double,                                 !- Feature Data Type 10
  0.81937567683596546,                    !- Feature Value 10
  EPWHeaderRecordsPerHour,                !- Feature Name 11
  Double,                                 !- Feature Data Type 11
  0,                                      !- Feature Value 11
  EPWDataAnnualAvgDrybulb,                !- Feature Name 12
  Double,                                 !- Feature Data Type 12
  51.575616438356228,                     !- Feature Value 12
  EPWDataAnnualMinDrybulb,                !- Feature Name 13
  Double,                                 !- Feature Data Type 13
  -2.9200000000000017,                    !- Feature Value 13
  EPWDataAnnualMaxDrybulb,                !- Feature Name 14
  Double,                                 !- Feature Data Type 14
  104,                                    !- Feature Value 14
  EPWDataCDD50F,                          !- Feature Name 15
  Double,                                 !- Feature Data Type 15
  3072.2925000000005,                     !- Feature Value 15
  EPWDataCDD65F,                          !- Feature Name 16
  Double,                                 !- Feature Data Type 16
  883.62000000000035,                     !- Feature Value 16
  EPWDataHDD50F,                          !- Feature Name 17
  Double,                                 !- Feature Data Type 17
  2497.1925000000001,                     !- Feature Value 17
  EPWDataHDD65F,                          !- Feature Name 18
  Double,                                 !- Feature Data Type 18
  5783.5200000000013,                     !- Feature Value 18
  EPWDataAnnualAvgWindspeed,              !- Feature Name 19
  Double,                                 !- Feature Data Type 19
  3.9165296803649667,                     !- Feature Value 19
  EPWDataMonthlyAvgDrybulbs,              !- Feature Name 20
  String,                                 !- Feature Data Type 20
  33.4191935483871&#4431.90142857142857&#4443.02620967741937&#4442.48624999999999&#4459.877741935483854&#4473.57574999999997&#4472.07975806451608&#4472.70008064516134&#4466.49200000000006&#4450.079112903225806&#4437.218250000000005&#4434.582177419354835, !- Feature Value 20
  EPWDataGroundMonthlyTemps,              !- Feature Name 21
  String,                                 !- Feature Data Type 21
  44.08306285945173&#4440.89570904991865&#4440.64045432632048&#4442.153016571250646&#4448.225111118704206&#4454.268919273837525&#4459.508577937551024&#4462.82777283423508&#4463.10975667174995&#4460.41014950381947&#4455.304105212311526&#4449.445696474514364, !- Feature Value 21
  EPWDataWSF,                             !- Feature Name 22
  Double,                                 !- Feature Data Type 22
  0.58999999999999997,                    !- Feature Value 22
  EPWDataMonthlyAvgDailyHighDrybulbs,     !- Feature Name 23
  String,                                 !- Feature Data Type 23
  47.41032258064516&#4446.58642857142857&#4455.15032258064517&#4453.708&#4472.80193548387098&#4488.67600000000002&#4486.1858064516129&#4485.87225806451613&#4482.082&#4463.18064516129033&#4448.73400000000001&#4448.87935483870968, !- Feature Value 23
  EPWDataMonthlyAvgDailyLowDrybulbs,      !- Feature Name 24
  String,                                 !- Feature Data Type 24
  19.347741935483874&#4419.856428571428573&#4430.316129032258065&#4431.112&#4447.41612903225806&#4457.901999999999994&#4459.063870967741934&#4460.956774193548384&#4452.352000000000004&#4438.41612903225806&#4427.002000000000002&#4423.02903225806451, !- Feature Value 24
  EPWDesignHeatingDrybulb,                !- Feature Name 25
  Double,                                 !- Feature Data Type 25
  12.02,                                  !- Feature Value 25
  EPWDesignHeatingWindspeed,              !- Feature Name 26
  Double,                                 !- Feature Data Type 26
  2.8062500000000004,                     !- Feature Value 26
  EPWDesignCoolingDrybulb,                !- Feature Name 27
  Double,                                 !- Feature Data Type 27
  91.939999999999998,                     !- Feature Value 27
  EPWDesignCoolingWetbulb,                !- Feature Name 28
  Double,                                 !- Feature Data Type 28
  59.95131430195849,                      !- Feature Value 28
  EPWDesignCoolingHumidityRatio,          !- Feature Name 29
  Double,                                 !- Feature Data Type 29
  0.0059161086834698092,                  !- Feature Value 29
  EPWDesignCoolingWindspeed,              !- Feature Name 30
  Double,                                 !- Feature Data Type 30
  3.7999999999999989,                     !- Feature Value 30
  EPWDesignDailyTemperatureRange,         !- Feature Name 31
  Double,                                 !- Feature Data Type 31
  24.915483870967748,                     !- Feature Value 31
  EPWDesignDehumidDrybulb,                !- Feature Name 32
  Double,                                 !- Feature Data Type 32
  67.996785714285721,                     !- Feature Value 32
  EPWDesignDehumidHumidityRatio,          !- Feature Name 33
  Double,                                 !- Feature Data Type 33
  0.012133744170488724,                   !- Feature Value 33
  EPWDesignCoolingDirectNormal,           !- Feature Name 34
  Double,                                 !- Feature Data Type 34
  985,                                    !- Feature Value 34
  EPWDesignCoolingDiffuseHorizontal,      !- Feature Name 35
  Double,                                 !- Feature Data Type 35
  84;                                     !- Feature Value 35

OS:Site,
  {d8f46f45-7aac-44cb-a90b-bde1abe87df9}, !- Handle
  Denver Intl Ap_CO_USA,                  !- Name
  39.83,                                  !- Latitude {deg}
  -104.65,                                !- Longitude {deg}
  -7,                                     !- Time Zone {hr}
  1650,                                   !- Elevation {m}
  Suburbs;                                !- Terrain

OS:ClimateZones,
  {f566cd39-8784-47cc-a5bc-fc07d0104ec5}, !- Handle
  ,                                       !- Active Institution
  ,                                       !- Active Year
  ,                                       !- Climate Zone Institution Name 1
  ,                                       !- Climate Zone Document Name 1
  ,                                       !- Climate Zone Document Year 1
  ,                                       !- Climate Zone Value 1
  Building America,                       !- Climate Zone Institution Name 2
  ,                                       !- Climate Zone Document Name 2
  0,                                      !- Climate Zone Document Year 2
  Cold;                                   !- Climate Zone Value 2

OS:Site:WaterMainsTemperature,
  {1e62ba53-dc7c-4dd2-b919-b26a15a038f7}, !- Handle
  Correlation,                            !- Calculation Method
  ,                                       !- Temperature Schedule Name
  10.8753424657535,                       !- Annual Average Outdoor Air Temperature {C}
  23.1524007936508;                       !- Maximum Difference In Monthly Average Outdoor Air Temperatures {deltaC}

OS:RunPeriodControl:DaylightSavingTime,
  {9762e0a1-2d24-4c96-89d4-7b26af734c3c}, !- Handle
  4/7,                                    !- Start Date
  10/26;                                  !- End Date

OS:Site:GroundTemperature:Deep,
  {2dd17107-3bac-4b0a-9542-426b6bc2ca71}, !- Handle
  10.8753424657535,                       !- January Deep Ground Temperature {C}
  10.8753424657535,                       !- February Deep Ground Temperature {C}
  10.8753424657535,                       !- March Deep Ground Temperature {C}
  10.8753424657535,                       !- April Deep Ground Temperature {C}
  10.8753424657535,                       !- May Deep Ground Temperature {C}
  10.8753424657535,                       !- June Deep Ground Temperature {C}
  10.8753424657535,                       !- July Deep Ground Temperature {C}
  10.8753424657535,                       !- August Deep Ground Temperature {C}
  10.8753424657535,                       !- September Deep Ground Temperature {C}
  10.8753424657535,                       !- October Deep Ground Temperature {C}
  10.8753424657535,                       !- November Deep Ground Temperature {C}
  10.8753424657535;                       !- December Deep Ground Temperature {C}

OS:Building,
  {79a81179-ba75-4ace-9708-b79b15a0ffd1}, !- Handle
  Building 1,                             !- Name
  ,                                       !- Building Sector Type
  0,                                      !- North Axis {deg}
  ,                                       !- Nominal Floor to Floor Height {m}
  ,                                       !- Space Type Name
  ,                                       !- Default Construction Set Name
  ,                                       !- Default Schedule Set Name
  2,                                      !- Standards Number of Stories
  1,                                      !- Standards Number of Above Ground Stories
  ,                                       !- Standards Template
  singlefamilyattached,                   !- Standards Building Type
  4;                                      !- Standards Number of Living Units

OS:AdditionalProperties,
  {3b0d18b7-cef2-45f0-895f-098801c0886e}, !- Handle
  {79a81179-ba75-4ace-9708-b79b15a0ffd1}, !- Object Name
  Dishwasher Max Flow Rate,               !- Feature Name 1
  Double,                                 !- Feature Data Type 1
  2.8186,                                 !- Feature Value 1
  Dishwasher Total Flow Rate,             !- Feature Name 2
  Double,                                 !- Feature Data Type 2
  4.4027178080000002,                     !- Feature Value 2
  Clothes Washer Max Flow Rate,           !- Feature Name 3
  Double,                                 !- Feature Data Type 3
  5.0354000000000001,                     !- Feature Value 3
  Clothes Washer Total Flow Rate,         !- Feature Name 4
  Double,                                 !- Feature Data Type 4
  4.5565123290000002,                     !- Feature Value 4
  Shower Max Flow Rate,                   !- Feature Name 5
  Double,                                 !- Feature Data Type 5
  4.0789999999999997,                     !- Feature Value 5
  Shower Total Flow Rate,                 !- Feature Name 6
  Double,                                 !- Feature Data Type 6
  26.240887669999999,                     !- Feature Value 6
  Sink Max Flow Rate,                     !- Feature Name 7
  Double,                                 !- Feature Data Type 7
  3.2738999999999998,                     !- Feature Value 7
  Sink Total Flow Rate,                   !- Feature Name 8
  Double,                                 !- Feature Data Type 8
  24.292169860000001,                     !- Feature Value 8
  Bath Max Flow Rate,                     !- Feature Name 9
  Double,                                 !- Feature Data Type 9
  7.0312000000000001,                     !- Feature Value 9
  Bath Total Flow Rate,                   !- Feature Name 10
  Double,                                 !- Feature Data Type 10
  7.2381150679999999,                     !- Feature Value 10
  Schedule Path,                          !- Feature Name 11
  String,                                 !- Feature Data Type 11
  C:/OpenStudio/appliances_schedules.csv, !- Feature Value 11
  Total Units Represented,                !- Feature Name 12
  Integer,                                !- Feature Data Type 12
  4,                                      !- Feature Value 12
  Total Units Modeled,                    !- Feature Name 13
  Integer,                                !- Feature Data Type 13
  4;                                      !- Feature Value 13

OS:ThermalZone,
  {e837b027-65c8-4a29-8a14-467636a6f6c9}, !- Handle
  living zone,                            !- Name
  ,                                       !- Multiplier
  ,                                       !- Ceiling Height {m}
  ,                                       !- Volume {m3}
  ,                                       !- Floor Area {m2}
  ,                                       !- Zone Inside Convection Algorithm
  ,                                       !- Zone Outside Convection Algorithm
  ,                                       !- Zone Conditioning Equipment List Name
  {eff5ec76-0c69-4389-8e04-62c78c42c322}, !- Zone Air Inlet Port List
  {cb38105d-7d33-4648-83c6-4cb1dde262cd}, !- Zone Air Exhaust Port List
  {dd32c234-4eae-44de-a1a5-d23dccc2f7b3}, !- Zone Air Node Name
  {f7b2abf1-01be-45c9-b941-bc3ed4b083e4}, !- Zone Return Air Port List
  ,                                       !- Primary Daylighting Control Name
  ,                                       !- Fraction of Zone Controlled by Primary Daylighting Control
  ,                                       !- Secondary Daylighting Control Name
  ,                                       !- Fraction of Zone Controlled by Secondary Daylighting Control
  ,                                       !- Illuminance Map Name
  ,                                       !- Group Rendering Name
  {f758da42-d27b-444b-bded-3c206989ba1a}, !- Thermostat Name
  No;                                     !- Use Ideal Air Loads

OS:Node,
  {29714f35-c241-4e32-a118-9205eeb884a8}, !- Handle
  Node 1,                                 !- Name
  {dd32c234-4eae-44de-a1a5-d23dccc2f7b3}, !- Inlet Port
  ;                                       !- Outlet Port

OS:Connection,
  {dd32c234-4eae-44de-a1a5-d23dccc2f7b3}, !- Handle
  {7164931b-bdbf-4102-a638-be59503f6970}, !- Name
  {e837b027-65c8-4a29-8a14-467636a6f6c9}, !- Source Object
  11,                                     !- Outlet Port
  {29714f35-c241-4e32-a118-9205eeb884a8}, !- Target Object
  2;                                      !- Inlet Port

OS:PortList,
  {eff5ec76-0c69-4389-8e04-62c78c42c322}, !- Handle
  {6cff9f21-4aa9-4c53-8927-7416969ab962}, !- Name
  {e837b027-65c8-4a29-8a14-467636a6f6c9}, !- HVAC Component
  {a34edd67-28ad-4738-8666-798c2dc90519}, !- Port 1
  {573ab42d-daf4-4712-8795-6ff8586a4497}; !- Port 2

OS:PortList,
  {cb38105d-7d33-4648-83c6-4cb1dde262cd}, !- Handle
  {636fa850-23d7-4fa5-b8c1-8e748e59be8c}, !- Name
  {e837b027-65c8-4a29-8a14-467636a6f6c9}; !- HVAC Component

OS:PortList,
  {f7b2abf1-01be-45c9-b941-bc3ed4b083e4}, !- Handle
  {ab6dbb85-226e-48bf-9ddc-4c0f5cca55a3}, !- Name
  {e837b027-65c8-4a29-8a14-467636a6f6c9}, !- HVAC Component
  {473c0025-642a-46ae-ad2f-f70dd2b6963a}, !- Port 1
  {522647d1-4a26-44df-8871-d72b01ed6dd1}; !- Port 2

OS:Sizing:Zone,
  {049c077d-0348-45e1-82fc-7d4ff2fd824c}, !- Handle
  {e837b027-65c8-4a29-8a14-467636a6f6c9}, !- Zone or ZoneList Name
  SupplyAirTemperature,                   !- Zone Cooling Design Supply Air Temperature Input Method
  14,                                     !- Zone Cooling Design Supply Air Temperature {C}
  11.11,                                  !- Zone Cooling Design Supply Air Temperature Difference {deltaC}
  SupplyAirTemperature,                   !- Zone Heating Design Supply Air Temperature Input Method
  40,                                     !- Zone Heating Design Supply Air Temperature {C}
  11.11,                                  !- Zone Heating Design Supply Air Temperature Difference {deltaC}
  0.0085,                                 !- Zone Cooling Design Supply Air Humidity Ratio {kg-H2O/kg-air}
  0.008,                                  !- Zone Heating Design Supply Air Humidity Ratio {kg-H2O/kg-air}
  ,                                       !- Zone Heating Sizing Factor
  ,                                       !- Zone Cooling Sizing Factor
  DesignDay,                              !- Cooling Design Air Flow Method
  ,                                       !- Cooling Design Air Flow Rate {m3/s}
  ,                                       !- Cooling Minimum Air Flow per Zone Floor Area {m3/s-m2}
  ,                                       !- Cooling Minimum Air Flow {m3/s}
  ,                                       !- Cooling Minimum Air Flow Fraction
  DesignDay,                              !- Heating Design Air Flow Method
  ,                                       !- Heating Design Air Flow Rate {m3/s}
  ,                                       !- Heating Maximum Air Flow per Zone Floor Area {m3/s-m2}
  ,                                       !- Heating Maximum Air Flow {m3/s}
  ,                                       !- Heating Maximum Air Flow Fraction
  ,                                       !- Design Zone Air Distribution Effectiveness in Cooling Mode
  ,                                       !- Design Zone Air Distribution Effectiveness in Heating Mode
  No,                                     !- Account for Dedicated Outdoor Air System
  NeutralSupplyAir,                       !- Dedicated Outdoor Air System Control Strategy
  autosize,                               !- Dedicated Outdoor Air Low Setpoint Temperature for Design {C}
  autosize;                               !- Dedicated Outdoor Air High Setpoint Temperature for Design {C}

OS:ZoneHVAC:EquipmentList,
  {3dcd9295-0c43-4f34-b476-3857a0fe44c0}, !- Handle
  Zone HVAC Equipment List 1,             !- Name
  {e837b027-65c8-4a29-8a14-467636a6f6c9}, !- Thermal Zone
  SequentialLoad,                         !- Load Distribution Scheme
  {bbd50a60-a465-415c-97ea-690973ce754e}, !- Zone Equipment 1
  1,                                      !- Zone Equipment Cooling Sequence 1
  1,                                      !- Zone Equipment Heating or No-Load Sequence 1
  ,                                       !- Zone Equipment Sequential Cooling Fraction Schedule Name 1
  ,                                       !- Zone Equipment Sequential Heating Fraction Schedule Name 1
  {57725878-5292-473a-ae46-9981e7633fde}, !- Zone Equipment 2
  2,                                      !- Zone Equipment Cooling Sequence 2
  2,                                      !- Zone Equipment Heating or No-Load Sequence 2
  ,                                       !- Zone Equipment Sequential Cooling Fraction Schedule Name 2
  ;                                       !- Zone Equipment Sequential Heating Fraction Schedule Name 2

OS:Space,
  {1605646a-57f1-4224-9ace-730856233733}, !- Handle
  living space,                           !- Name
  {8be9677a-d5aa-4438-baf0-77700cdf4fce}, !- Space Type Name
  ,                                       !- Default Construction Set Name
  ,                                       !- Default Schedule Set Name
  ,                                       !- Direction of Relative North {deg}
  ,                                       !- X Origin {m}
  ,                                       !- Y Origin {m}
  ,                                       !- Z Origin {m}
  ,                                       !- Building Story Name
  {e837b027-65c8-4a29-8a14-467636a6f6c9}, !- Thermal Zone Name
  ,                                       !- Part of Total Floor Area
  ,                                       !- Design Specification Outdoor Air Object Name
  {610d72b6-7069-457c-a055-685c71105e8f}; !- Building Unit Name

OS:Surface,
  {f29e03a2-e2cb-438a-a3a2-40383812df7a}, !- Handle
  Surface 1,                              !- Name
  Floor,                                  !- Surface Type
  {f349fa69-6276-47d0-bf46-f611b34b48bb}, !- Construction Name
  {1605646a-57f1-4224-9ace-730856233733}, !- Space Name
  Surface,                                !- Outside Boundary Condition
  {8cd6cddf-93d7-45c6-a30e-265fde4e82a0}, !- Outside Boundary Condition Object
  NoSun,                                  !- Sun Exposure
  NoWind,                                 !- Wind Exposure
  ,                                       !- View Factor to Ground
  ,                                       !- Number of Vertices
  0, -9.144, 0,                           !- X,Y,Z Vertex 1 {m}
  0, 0, 0,                                !- X,Y,Z Vertex 2 {m}
  4.572, 0, 0,                            !- X,Y,Z Vertex 3 {m}
  4.572, -9.144, 0;                       !- X,Y,Z Vertex 4 {m}

OS:Surface,
  {006a9654-35b3-4d8b-bccd-54b2519833dd}, !- Handle
  Surface 2,                              !- Name
  Wall,                                   !- Surface Type
  {a840eb8c-abdf-428d-ad6e-48f28b68a8f1}, !- Construction Name
  {1605646a-57f1-4224-9ace-730856233733}, !- Space Name
  Outdoors,                               !- Outside Boundary Condition
  ,                                       !- Outside Boundary Condition Object
  SunExposed,                             !- Sun Exposure
  WindExposed,                            !- Wind Exposure
  ,                                       !- View Factor to Ground
  ,                                       !- Number of Vertices
  0, 0, 2.4384,                           !- X,Y,Z Vertex 1 {m}
  0, 0, 0,                                !- X,Y,Z Vertex 2 {m}
  0, -9.144, 0,                           !- X,Y,Z Vertex 3 {m}
  0, -9.144, 2.4384;                      !- X,Y,Z Vertex 4 {m}

OS:Surface,
  {977c299c-f54b-4854-8032-87bbb1856bc8}, !- Handle
  Surface 3,                              !- Name
  Wall,                                   !- Surface Type
  {a840eb8c-abdf-428d-ad6e-48f28b68a8f1}, !- Construction Name
  {1605646a-57f1-4224-9ace-730856233733}, !- Space Name
  Outdoors,                               !- Outside Boundary Condition
  ,                                       !- Outside Boundary Condition Object
  SunExposed,                             !- Sun Exposure
  WindExposed,                            !- Wind Exposure
  ,                                       !- View Factor to Ground
  ,                                       !- Number of Vertices
  4.572, 0, 2.4384,                       !- X,Y,Z Vertex 1 {m}
  4.572, 0, 0,                            !- X,Y,Z Vertex 2 {m}
  0, 0, 0,                                !- X,Y,Z Vertex 3 {m}
  0, 0, 2.4384;                           !- X,Y,Z Vertex 4 {m}

OS:Surface,
  {d36b3dba-357d-4b61-a528-981240c7e46c}, !- Handle
  Surface 4,                              !- Name
  Wall,                                   !- Surface Type
  {e77e165b-163b-44ae-b7a4-04b3136ba84d}, !- Construction Name
  {1605646a-57f1-4224-9ace-730856233733}, !- Space Name
  Surface,                                !- Outside Boundary Condition
  {83408b93-e1e1-441c-8dcd-3d20f2baf7d0}, !- Outside Boundary Condition Object
  NoSun,                                  !- Sun Exposure
  NoWind,                                 !- Wind Exposure
  ,                                       !- View Factor to Ground
  ,                                       !- Number of Vertices
  4.572, -9.144, 2.4384,                  !- X,Y,Z Vertex 1 {m}
  4.572, -9.144, 0,                       !- X,Y,Z Vertex 2 {m}
  4.572, 0, 0,                            !- X,Y,Z Vertex 3 {m}
  4.572, 0, 2.4384;                       !- X,Y,Z Vertex 4 {m}

OS:Surface,
  {0484164c-0ca0-4885-8d52-a6b89c19b471}, !- Handle
  Surface 5,                              !- Name
  Wall,                                   !- Surface Type
  {a840eb8c-abdf-428d-ad6e-48f28b68a8f1}, !- Construction Name
  {1605646a-57f1-4224-9ace-730856233733}, !- Space Name
  Outdoors,                               !- Outside Boundary Condition
  ,                                       !- Outside Boundary Condition Object
  SunExposed,                             !- Sun Exposure
  WindExposed,                            !- Wind Exposure
  ,                                       !- View Factor to Ground
  ,                                       !- Number of Vertices
  4.572, -9.144, 0,                       !- X,Y,Z Vertex 1 {m}
  4.572, -9.144, 2.4384,                  !- X,Y,Z Vertex 2 {m}
  1.04865714285714, -9.144, 2.4384,       !- X,Y,Z Vertex 3 {m}
  1.04865714285714, -9.144, 0;            !- X,Y,Z Vertex 4 {m}

OS:Surface,
  {88bf319f-7e7b-44e1-aa10-119e92361fb1}, !- Handle
  Surface 6,                              !- Name
  RoofCeiling,                            !- Surface Type
  {ea5811b0-803c-4e1d-ac10-08187348ed5d}, !- Construction Name
  {1605646a-57f1-4224-9ace-730856233733}, !- Space Name
  Surface,                                !- Outside Boundary Condition
  {17c81a4f-191d-4bd8-b4f4-266e19b3bd69}, !- Outside Boundary Condition Object
  NoSun,                                  !- Sun Exposure
  NoWind,                                 !- Wind Exposure