!- NOTE: Auto-generated from /test/osw_files/SFA_4units_1story_SL_UA_3Beds_2Baths_Denver_Central_System_Fan_Coil_Cooling_Only.osw

OS:Version,
  {c7a1d14d-0965-4e0e-837d-34c9ad14645f}, !- Handle
  2.8.0;                                  !- Version Identifier

OS:SimulationControl,
  {56aacd95-c276-45d4-9d83-3c820c588ca8}, !- Handle
  ,                                       !- Do Zone Sizing Calculation
  ,                                       !- Do System Sizing Calculation
  ,                                       !- Do Plant Sizing Calculation
  Yes;                                    !- Run Simulation for Sizing Periods

OS:Timestep,
  {75167949-1e15-4327-85eb-c1927c3ac8e6}, !- Handle
  6;                                      !- Number of Timesteps per Hour

OS:ShadowCalculation,
  {b86fdc4e-6423-4366-935f-637d9f028b09}, !- Handle
  20,                                     !- Calculation Frequency
  200;                                    !- Maximum Figures in Shadow Overlap Calculations

OS:SurfaceConvectionAlgorithm:Outside,
  {c1dc007d-2a6c-451c-8751-e9eb4fab708b}, !- Handle
  DOE-2;                                  !- Algorithm

OS:SurfaceConvectionAlgorithm:Inside,
  {57c25f3d-5eac-4154-a692-42c8adc11d63}, !- Handle
  TARP;                                   !- Algorithm

OS:ZoneCapacitanceMultiplier:ResearchSpecial,
  {5bf00f4c-8ad8-4c8e-b6cf-0f95fcbfdcf3}, !- Handle
  ,                                       !- Temperature Capacity Multiplier
  15,                                     !- Humidity Capacity Multiplier
  ;                                       !- Carbon Dioxide Capacity Multiplier

OS:RunPeriod,
  {9b4c4364-0c1d-4e9e-b354-7f8721186f28}, !- Handle
  Run Period 1,                           !- Name
  1,                                      !- Begin Month
  1,                                      !- Begin Day of Month
  12,                                     !- End Month
  31,                                     !- End Day of Month
  ,                                       !- Use Weather File Holidays and Special Days
  ,                                       !- Use Weather File Daylight Saving Period
  ,                                       !- Apply Weekend Holiday Rule
  ,                                       !- Use Weather File Rain Indicators
  ,                                       !- Use Weather File Snow Indicators
  ;                                       !- Number of Times Runperiod to be Repeated

OS:YearDescription,
  {d0a28cf5-7c0c-42a3-a37c-13200c3f1f87}, !- Handle
  2007,                                   !- Calendar Year
  ,                                       !- Day of Week for Start Day
  ;                                       !- Is Leap Year

OS:ThermalZone,
  {debbee89-5df8-43df-ac36-3a89358910ae}, !- Handle
  living zone,                            !- Name
  ,                                       !- Multiplier
  ,                                       !- Ceiling Height {m}
  ,                                       !- Volume {m3}
  ,                                       !- Floor Area {m2}
  ,                                       !- Zone Inside Convection Algorithm
  ,                                       !- Zone Outside Convection Algorithm
  ,                                       !- Zone Conditioning Equipment List Name
  {1bc236f8-0437-4059-ba83-44ac8ae718fb}, !- Zone Air Inlet Port List
  {69c8d724-961f-4020-9cee-fcaed15c3085}, !- Zone Air Exhaust Port List
  {be13f295-49db-4f55-a5cc-34eec3b0ebe8}, !- Zone Air Node Name
  {ecc6e6d6-0586-4af0-953c-72ac1a4b23f2}, !- Zone Return Air Port List
  ,                                       !- Primary Daylighting Control Name
  ,                                       !- Fraction of Zone Controlled by Primary Daylighting Control
  ,                                       !- Secondary Daylighting Control Name
  ,                                       !- Fraction of Zone Controlled by Secondary Daylighting Control
  ,                                       !- Illuminance Map Name
  ,                                       !- Group Rendering Name
  {b40a07cd-d7c1-4f6b-b2ed-da3074cb88e9}, !- Thermostat Name
  No;                                     !- Use Ideal Air Loads

OS:Node,
  {7f677109-429e-4d69-babe-107e2c6e2100}, !- Handle
  Node 1,                                 !- Name
  {be13f295-49db-4f55-a5cc-34eec3b0ebe8}, !- Inlet Port
  ;                                       !- Outlet Port

OS:Connection,
  {be13f295-49db-4f55-a5cc-34eec3b0ebe8}, !- Handle
  {0e663dd5-0c6b-4975-84ff-d2cb56154873}, !- Name
  {debbee89-5df8-43df-ac36-3a89358910ae}, !- Source Object
  11,                                     !- Outlet Port
  {7f677109-429e-4d69-babe-107e2c6e2100}, !- Target Object
  2;                                      !- Inlet Port

OS:PortList,
  {1bc236f8-0437-4059-ba83-44ac8ae718fb}, !- Handle
  {fca9e05d-b6da-433f-9fd6-0d4fc605ec97}, !- Name
  {debbee89-5df8-43df-ac36-3a89358910ae}, !- HVAC Component
  {80da5fa7-200f-4208-b758-0fce83e260ac}; !- Port 1

OS:PortList,
  {69c8d724-961f-4020-9cee-fcaed15c3085}, !- Handle
  {364740ee-b5b4-4155-af68-7870c3c12f19}, !- Name
  {debbee89-5df8-43df-ac36-3a89358910ae}, !- HVAC Component
  {cdf2d1ba-370e-4b11-86c1-1192757674ae}; !- Port 1

OS:PortList,
  {ecc6e6d6-0586-4af0-953c-72ac1a4b23f2}, !- Handle
  {576c5d09-9967-4434-a336-373274f9c4e3}, !- Name
  {debbee89-5df8-43df-ac36-3a89358910ae}; !- HVAC Component

OS:Sizing:Zone,
  {9cac487b-e8da-49f2-9f2d-4c21116950d1}, !- Handle
  {debbee89-5df8-43df-ac36-3a89358910ae}, !- Zone or ZoneList Name
  SupplyAirTemperature,                   !- Zone Cooling Design Supply Air Temperature Input Method
  12.7777777777778,                       !- Zone Cooling Design Supply Air Temperature {C}
  11.11,                                  !- Zone Cooling Design Supply Air Temperature Difference {deltaC}
  SupplyAirTemperature,                   !- Zone Heating Design Supply Air Temperature Input Method
  40.0000000000001,                       !- Zone Heating Design Supply Air Temperature {C}
  11.11,                                  !- Zone Heating Design Supply Air Temperature Difference {deltaC}
  0.0085,                                 !- Zone Cooling Design Supply Air Humidity Ratio {kg-H2O/kg-air}
  0.008,                                  !- Zone Heating Design Supply Air Humidity Ratio {kg-H2O/kg-air}
  ,                                       !- Zone Heating Sizing Factor
  ,                                       !- Zone Cooling Sizing Factor
  DesignDay,                              !- Cooling Design Air Flow Method
  ,                                       !- Cooling Design Air Flow Rate {m3/s}
  ,                                       !- Cooling Minimum Air Flow per Zone Floor Area {m3/s-m2}
  ,                                       !- Cooling Minimum Air Flow {m3/s}
  ,                                       !- Cooling Minimum Air Flow Fraction
  DesignDay,                              !- Heating Design Air Flow Method
  ,                                       !- Heating Design Air Flow Rate {m3/s}
  ,                                       !- Heating Maximum Air Flow per Zone Floor Area {m3/s-m2}
  ,                                       !- Heating Maximum Air Flow {m3/s}
  ,                                       !- Heating Maximum Air Flow Fraction
  ,                                       !- Design Zone Air Distribution Effectiveness in Cooling Mode
  ,                                       !- Design Zone Air Distribution Effectiveness in Heating Mode
  No,                                     !- Account for Dedicated Outdoor Air System
  NeutralSupplyAir,                       !- Dedicated Outdoor Air System Control Strategy
  autosize,                               !- Dedicated Outdoor Air Low Setpoint Temperature for Design {C}
  autosize;                               !- Dedicated Outdoor Air High Setpoint Temperature for Design {C}

OS:ZoneHVAC:EquipmentList,
  {8743f750-e35d-4d8c-baa9-7165ae967d6f}, !- Handle
  Zone HVAC Equipment List 1,             !- Name
  {debbee89-5df8-43df-ac36-3a89358910ae}, !- Thermal Zone
  ,                                       !- Load Distribution Scheme
  {35cbac9b-05c2-489f-b124-eec5b4f2a2dd}, !- Zone Equipment 1
  1,                                      !- Zone Equipment Cooling Sequence 1
  1,                                      !- Zone Equipment Heating or No-Load Sequence 1
  ,                                       !- Zone Equipment Sequential Cooling Fraction 1
  ;                                       !- Zone Equipment Sequential Heating Fraction 1

OS:Space,
  {cb5dbcfb-780e-4fc1-86ec-e33e4665590b}, !- Handle
  living space,                           !- Name
  {27b2e39c-5e9e-4e48-a720-d36533110466}, !- Space Type Name
  ,                                       !- Default Construction Set Name
  ,                                       !- Default Schedule Set Name
  ,                                       !- Direction of Relative North {deg}
  ,                                       !- X Origin {m}
  ,                                       !- Y Origin {m}
  ,                                       !- Z Origin {m}
  ,                                       !- Building Story Name
  {debbee89-5df8-43df-ac36-3a89358910ae}, !- Thermal Zone Name
  ,                                       !- Part of Total Floor Area
  ,                                       !- Design Specification Outdoor Air Object Name
  {b3a4a2bb-2a59-4222-9128-441f9fdeadda}; !- Building Unit Name

OS:Surface,
  {36cde468-a25d-4c63-be02-ee4cf0a2f37f}, !- Handle
  Surface 1,                              !- Name
  Floor,                                  !- Surface Type
  ,                                       !- Construction Name
  {cb5dbcfb-780e-4fc1-86ec-e33e4665590b}, !- Space Name
  Foundation,                             !- Outside Boundary Condition
  ,                                       !- Outside Boundary Condition Object
  NoSun,                                  !- Sun Exposure
  NoWind,                                 !- Wind Exposure
  ,                                       !- View Factor to Ground
  ,                                       !- Number of Vertices
  0, -12.9315688143396, 0,                !- X,Y,Z Vertex 1 {m}
  0, 0, 0,                                !- X,Y,Z Vertex 2 {m}
  6.46578440716979, 0, 0,                 !- X,Y,Z Vertex 3 {m}
  6.46578440716979, -12.9315688143396, 0; !- X,Y,Z Vertex 4 {m}

OS:Surface,
  {286eb93c-625c-45bb-ba6f-71702f6d64fd}, !- Handle
  Surface 2,                              !- Name
  Wall,                                   !- Surface Type
  ,                                       !- Construction Name
  {cb5dbcfb-780e-4fc1-86ec-e33e4665590b}, !- Space Name
  Outdoors,                               !- Outside Boundary Condition
  ,                                       !- Outside Boundary Condition Object
  SunExposed,                             !- Sun Exposure
  WindExposed,                            !- Wind Exposure
  ,                                       !- View Factor to Ground
  ,                                       !- Number of Vertices
  0, 0, 2.4384,                           !- X,Y,Z Vertex 1 {m}
  0, 0, 0,                                !- X,Y,Z Vertex 2 {m}
  0, -12.9315688143396, 0,                !- X,Y,Z Vertex 3 {m}
  0, -12.9315688143396, 2.4384;           !- X,Y,Z Vertex 4 {m}

OS:Surface,
  {0c05ec70-1b9b-491f-9e40-af8cf13fb88d}, !- Handle
  Surface 3,                              !- Name
  Wall,                                   !- Surface Type
  ,                                       !- Construction Name
  {cb5dbcfb-780e-4fc1-86ec-e33e4665590b}, !- Space Name
  Outdoors,                               !- Outside Boundary Condition
  ,                                       !- Outside Boundary Condition Object
  SunExposed,                             !- Sun Exposure
  WindExposed,                            !- Wind Exposure
  ,                                       !- View Factor to Ground
  ,                                       !- Number of Vertices
  6.46578440716979, 0, 2.4384,            !- X,Y,Z Vertex 1 {m}
  6.46578440716979, 0, 0,                 !- X,Y,Z Vertex 2 {m}
  0, 0, 0,                                !- X,Y,Z Vertex 3 {m}
  0, 0, 2.4384;                           !- X,Y,Z Vertex 4 {m}

OS:Surface,
  {6bae5fef-8cd6-44ad-9610-5f851b7454f2}, !- Handle
  Surface 4,                              !- Name
  Wall,                                   !- Surface Type
  ,                                       !- Construction Name
  {cb5dbcfb-780e-4fc1-86ec-e33e4665590b}, !- Space Name
  Surface,                                !- Outside Boundary Condition
  {9f29cbf8-d3a2-4d3f-93c8-c38f41a20662}, !- Outside Boundary Condition Object
  NoSun,                                  !- Sun Exposure
  NoWind,                                 !- Wind Exposure
  ,                                       !- View Factor to Ground
  ,                                       !- Number of Vertices
  6.46578440716979, -12.9315688143396, 2.4384, !- X,Y,Z Vertex 1 {m}
  6.46578440716979, -12.9315688143396, 0, !- X,Y,Z Vertex 2 {m}
  6.46578440716979, 0, 0,                 !- X,Y,Z Vertex 3 {m}
  6.46578440716979, 0, 2.4384;            !- X,Y,Z Vertex 4 {m}

OS:Surface,
  {a4f839cc-0b9b-451b-b9ae-b51637a4b418}, !- Handle
  Surface 5,                              !- Name
  Wall,                                   !- Surface Type
  ,                                       !- Construction Name
  {cb5dbcfb-780e-4fc1-86ec-e33e4665590b}, !- Space Name
  Outdoors,                               !- Outside Boundary Condition
  ,                                       !- Outside Boundary Condition Object
  SunExposed,                             !- Sun Exposure
  WindExposed,                            !- Wind Exposure
  ,                                       !- View Factor to Ground
  ,                                       !- Number of Vertices
  0, -12.9315688143396, 2.4384,           !- X,Y,Z Vertex 1 {m}
  0, -12.9315688143396, 0,                !- X,Y,Z Vertex 2 {m}
  6.46578440716979, -12.9315688143396, 0, !- X,Y,Z Vertex 3 {m}
  6.46578440716979, -12.9315688143396, 2.4384; !- X,Y,Z Vertex 4 {m}

OS:Surface,
  {36890679-efdb-4276-9187-a37a00d6cb37}, !- Handle
  Surface 6,                              !- Name
  RoofCeiling,                            !- Surface Type
  ,                                       !- Construction Name
  {cb5dbcfb-780e-4fc1-86ec-e33e4665590b}, !- Space Name
  Surface,                                !- Outside Boundary Condition
  {0560c1ac-121c-4073-aa52-a745d26e4e79}, !- Outside Boundary Condition Object
  NoSun,                                  !- Sun Exposure
  NoWind,                                 !- Wind Exposure
  ,                                       !- View Factor to Ground
  ,                                       !- Number of Vertices
  6.46578440716979, -12.9315688143396, 2.4384, !- X,Y,Z Vertex 1 {m}
  6.46578440716979, 0, 2.4384,            !- X,Y,Z Vertex 2 {m}
  0, 0, 2.4384,                           !- X,Y,Z Vertex 3 {m}
  0, -12.9315688143396, 2.4384;           !- X,Y,Z Vertex 4 {m}

OS:SpaceType,
  {27b2e39c-5e9e-4e48-a720-d36533110466}, !- Handle
  Space Type 1,                           !- Name
  ,                                       !- Default Construction Set Name
  ,                                       !- Default Schedule Set Name
  ,                                       !- Group Rendering Name
  ,                                       !- Design Specification Outdoor Air Object Name
  ,                                       !- Standards Template
  ,                                       !- Standards Building Type
  living;                                 !- Standards Space Type

OS:ThermalZone,
  {651523fe-784e-4f65-9b4f-ecc005aba3a4}, !- Handle
  living zone|unit 2,                     !- Name
  ,                                       !- Multiplier
  ,                                       !- Ceiling Height {m}
  ,                                       !- Volume {m3}
  ,                                       !- Floor Area {m2}
  ,                                       !- Zone Inside Convection Algorithm
  ,                                       !- Zone Outside Convection Algorithm
  ,                                       !- Zone Conditioning Equipment List Name
  {c3db87eb-85c6-498e-ba2d-94c7dfd85a2f}, !- Zone Air Inlet Port List
  {d0bcc31a-7ec8-4fce-b337-672840026c58}, !- Zone Air Exhaust Port List
  {fc598ef7-2430-46f1-a10f-0618b51e919e}, !- Zone Air Node Name
  {ee67fc18-9180-4dc4-82c5-957d0fef44aa}, !- Zone Return Air Port List
  ,                                       !- Primary Daylighting Control Name
  ,                                       !- Fraction of Zone Controlled by Primary Daylighting Control
  ,                                       !- Secondary Daylighting Control Name
  ,                                       !- Fraction of Zone Controlled by Secondary Daylighting Control
  ,                                       !- Illuminance Map Name
  ,                                       !- Group Rendering Name
  {bd65cced-c904-4060-88eb-71b6e20f057c}, !- Thermostat Name
  No;                                     !- Use Ideal Air Loads

OS:Node,
  {40e323d8-d426-47d4-bc3d-a0e8eb59f50b}, !- Handle
  Node 2,                                 !- Name
  {fc598ef7-2430-46f1-a10f-0618b51e919e}, !- Inlet Port
  ;                                       !- Outlet Port

OS:Connection,
  {fc598ef7-2430-46f1-a10f-0618b51e919e}, !- Handle
  {be724c94-4fc9-458c-af87-f37c4b236c99}, !- Name
  {651523fe-784e-4f65-9b4f-ecc005aba3a4}, !- Source Object
  11,                                     !- Outlet Port
  {40e323d8-d426-47d4-bc3d-a0e8eb59f50b}, !- Target Object
  2;                                      !- Inlet Port

OS:PortList,
  {c3db87eb-85c6-498e-ba2d-94c7dfd85a2f}, !- Handle
  {a3f05868-c55c-4b95-86bb-36f2e1459466}, !- Name
  {651523fe-784e-4f65-9b4f-ecc005aba3a4}, !- HVAC Component
  {710ce1bc-aa29-4e80-8f6a-83b3ff56f22c}; !- Port 1

OS:PortList,
  {d0bcc31a-7ec8-4fce-b337-672840026c58}, !- Handle
  {fe227937-1fee-4259-9902-79dc90054ded}, !- Name
  {651523fe-784e-4f65-9b4f-ecc005aba3a4}, !- HVAC Component
  {d606dffa-6bbb-4a04-ba38-c0eb39886fd8}; !- Port 1

OS:PortList,
  {ee67fc18-9180-4dc4-82c5-957d0fef44aa}, !- Handle
  {a0339268-85bf-4664-b17d-a30a8c7880a2}, !- Name
  {651523fe-784e-4f65-9b4f-ecc005aba3a4}; !- HVAC Component

OS:Sizing:Zone,
  {52a81fd8-56dc-4a06-9444-aed526e1a929}, !- Handle
  {651523fe-784e-4f65-9b4f-ecc005aba3a4}, !- Zone or ZoneList Name
  SupplyAirTemperature,                   !- Zone Cooling Design Supply Air Temperature Input Method
  12.7777777777778,                       !- Zone Cooling Design Supply Air Temperature {C}
  11.11,                                  !- Zone Cooling Design Supply Air Temperature Difference {deltaC}
  SupplyAirTemperature,                   !- Zone Heating Design Supply Air Temperature Input Method
  40.0000000000001,                       !- Zone Heating Design Supply Air Temperature {C}
  11.11,                                  !- Zone Heating Design Supply Air Temperature Difference {deltaC}
  0.0085,                                 !- Zone Cooling Design Supply Air Humidity Ratio {kg-H2O/kg-air}
  0.008,                                  !- Zone Heating Design Supply Air Humidity Ratio {kg-H2O/kg-air}
  ,                                       !- Zone Heating Sizing Factor
  ,                                       !- Zone Cooling Sizing Factor
  DesignDay,                              !- Cooling Design Air Flow Method
  ,                                       !- Cooling Design Air Flow Rate {m3/s}
  ,                                       !- Cooling Minimum Air Flow per Zone Floor Area {m3/s-m2}
  ,                                       !- Cooling Minimum Air Flow {m3/s}
  ,                                       !- Cooling Minimum Air Flow Fraction
  DesignDay,                              !- Heating Design Air Flow Method
  ,                                       !- Heating Design Air Flow Rate {m3/s}
  ,                                       !- Heating Maximum Air Flow per Zone Floor Area {m3/s-m2}
  ,                                       !- Heating Maximum Air Flow {m3/s}
  ,                                       !- Heating Maximum Air Flow Fraction
  ,                                       !- Design Zone Air Distribution Effectiveness in Cooling Mode
  ,                                       !- Design Zone Air Distribution Effectiveness in Heating Mode
  No,                                     !- Account for Dedicated Outdoor Air System
  NeutralSupplyAir,                       !- Dedicated Outdoor Air System Control Strategy
  autosize,                               !- Dedicated Outdoor Air Low Setpoint Temperature for Design {C}
  autosize;                               !- Dedicated Outdoor Air High Setpoint Temperature for Design {C}

OS:ZoneHVAC:EquipmentList,
  {227befb8-0c82-4e7c-ad59-fac79d3357df}, !- Handle
  Zone HVAC Equipment List 2,             !- Name
  {651523fe-784e-4f65-9b4f-ecc005aba3a4}, !- Thermal Zone
  ,                                       !- Load Distribution Scheme
  {46988b90-6686-43e9-8a42-c70b351be963}, !- Zone Equipment 1
  1,                                      !- Zone Equipment Cooling Sequence 1
  1,                                      !- Zone Equipment Heating or No-Load Sequence 1
  ,                                       !- Zone Equipment Sequential Cooling Fraction 1
  ;                                       !- Zone Equipment Sequential Heating Fraction 1

OS:Space,
  {b17cbe90-5cc4-49ab-9738-24d068769dce}, !- Handle
  living space|unit 2|story 1,            !- Name
  {27b2e39c-5e9e-4e48-a720-d36533110466}, !- Space Type Name
  ,                                       !- Default Construction Set Name
  ,                                       !- Default Schedule Set Name
  -0,                                     !- Direction of Relative North {deg}
  0,                                      !- X Origin {m}
  0,                                      !- Y Origin {m}
  0,                                      !- Z Origin {m}
  ,                                       !- Building Story Name
  {651523fe-784e-4f65-9b4f-ecc005aba3a4}, !- Thermal Zone Name
  ,                                       !- Part of Total Floor Area
  ,                                       !- Design Specification Outdoor Air Object Name
  {36e06a34-2bb8-4204-9fef-d49e79a68e85}; !- Building Unit Name

OS:Surface,
  {9f29cbf8-d3a2-4d3f-93c8-c38f41a20662}, !- Handle
  Surface 12,                             !- Name
  RoofCeiling,                            !- Surface Type
  ,                                       !- Construction Name
  {b17cbe90-5cc4-49ab-9738-24d068769dce}, !- Space Name
  Surface,                                !- Outside Boundary Condition
  {6bae5fef-8cd6-44ad-9610-5f851b7454f2}, !- Outside Boundary Condition Object
  NoSun,                                  !- Sun Exposure
  NoWind,                                 !- Wind Exposure
  ,                                       !- View Factor to Ground
  ,                                       !- Number of Vertices
  6.46578440716979, 0, 2.4384,            !- X,Y,Z Vertex 1 {m}
  6.46578440716979, 0, 0,                 !- X,Y,Z Vertex 2 {m}
  6.46578440716979, -12.9315688143396, 0, !- X,Y,Z Vertex 3 {m}
  6.46578440716979, -12.9315688143396, 2.4384; !- X,Y,Z Vertex 4 {m}

OS:Surface,
  {b46c7ec4-f3be-48b3-9f54-698d9197c80e}, !- Handle
  Surface 13,                             !- Name
  RoofCeiling,                            !- Surface Type
  ,                                       !- Construction Name
  {b17cbe90-5cc4-49ab-9738-24d068769dce}, !- Space Name
  Surface,                                !- Outside Boundary Condition
  {1b3fcc12-97c2-44c5-b347-a2d024ec461e}, !- Outside Boundary Condition Object
  NoSun,                                  !- Sun Exposure
  NoWind,                                 !- Wind Exposure
  ,                                       !- View Factor to Ground
  ,                                       !- Number of Vertices
  12.9315688143396, -12.9315688143396, 2.4384, !- X,Y,Z Vertex 1 {m}
  12.9315688143396, -12.9315688143396, 0, !- X,Y,Z Vertex 2 {m}
  12.9315688143396, 0, 0,                 !- X,Y,Z Vertex 3 {m}
  12.9315688143396, 0, 2.4384;            !- X,Y,Z Vertex 4 {m}

OS:Surface,
  {8032e17a-5bfb-4d1b-9520-49da91531fbc}, !- Handle
  Surface 14,                             !- Name
  Floor,                                  !- Surface Type
  ,                                       !- Construction Name
  {b17cbe90-5cc4-49ab-9738-24d068769dce}, !- Space Name
  Foundation,                             !- Outside Boundary Condition
  ,                                       !- Outside Boundary Condition Object
  NoSun,                                  !- Sun Exposure
  NoWind,                                 !- Wind Exposure
  ,                                       !- View Factor to Ground
  ,                                       !- Number of Vertices
  6.46578440716979, -12.9315688143396, 0, !- X,Y,Z Vertex 1 {m}
  6.46578440716979, 0, 0,                 !- X,Y,Z Vertex 2 {m}
  12.9315688143396, 0, 0,                 !- X,Y,Z Vertex 3 {m}
  12.9315688143396, -12.9315688143396, 0; !- X,Y,Z Vertex 4 {m}

OS:Surface,
  {c6214c28-d9dc-4655-8efd-4c3fa1195346}, !- Handle
  Surface 15,                             !- Name
  Wall,                                   !- Surface Type
  ,                                       !- Construction Name
  {b17cbe90-5cc4-49ab-9738-24d068769dce}, !- Space Name
  Surface,                                !- Outside Boundary Condition
  {67bfbe3d-9c30-44ce-a2e0-42442936c0c6}, !- Outside Boundary Condition Object
  NoSun,                                  !- Sun Exposure
  NoWind,                                 !- Wind Exposure
  ,                                       !- View Factor to Ground
  ,                                       !- Number of Vertices
  12.9315688143396, -12.9315688143396, 2.4384, !- X,Y,Z Vertex 1 {m}
  12.9315688143396, -12.9315688143396, 0, !- X,Y,Z Vertex 2 {m}
  12.9315688143396, 0, 0,                 !- X,Y,Z Vertex 3 {m}
  12.9315688143396, 0, 2.4384;            !- X,Y,Z Vertex 4 {m}

OS:Surface,
  {21cf359f-dc38-4e17-8f48-02ff36a05139}, !- Handle
  Surface 16,                             !- Name
  Wall,                                   !- Surface Type
  ,                                       !- Construction Name
  {b17cbe90-5cc4-49ab-9738-24d068769dce}, !- Space Name
  Outdoors,                               !- Outside Boundary Condition
  ,                                       !- Outside Boundary Condition Object
  SunExposed,                             !- Sun Exposure
  WindExposed,                            !- Wind Exposure
  ,                                       !- View Factor to Ground
  ,                                       !- Number of Vertices
  6.46578440716979, -12.9315688143396, 2.4384, !- X,Y,Z Vertex 1 {m}
  6.46578440716979, -12.9315688143396, 0, !- X,Y,Z Vertex 2 {m}
  12.9315688143396, -12.9315688143396, 0, !- X,Y,Z Vertex 3 {m}
  12.9315688143396, -12.9315688143396, 2.4384; !- X,Y,Z Vertex 4 {m}

OS:Surface,
  {785a31ab-998e-4f7f-85a4-9e887acd3b61}, !- Handle
  Surface 17,                             !- Name
  Wall,                                   !- Surface Type
  ,                                       !- Construction Name
  {b17cbe90-5cc4-49ab-9738-24d068769dce}, !- Space Name
  Outdoors,                               !- Outside Boundary Condition
  ,                                       !- Outside Boundary Condition Object
  SunExposed,                             !- Sun Exposure
  WindExposed,                            !- Wind Exposure
  ,                                       !- View Factor to Ground
  ,                                       !- Number of Vertices
  12.9315688143396, 0, 2.4384,            !- X,Y,Z Vertex 1 {m}
  12.9315688143396, 0, 0,                 !- X,Y,Z Vertex 2 {m}
  6.46578440716979, 0, 0,                 !- X,Y,Z Vertex 3 {m}
  6.46578440716979, 0, 2.4384;            !- X,Y,Z Vertex 4 {m}

OS:ThermalZone,
  {c5b4300d-cb7c-49d4-896d-31585e76fe9f}, !- Handle
  living zone|unit 3,                     !- Name
  ,                                       !- Multiplier
  ,                                       !- Ceiling Height {m}
  ,                                       !- Volume {m3}
  ,                                       !- Floor Area {m2}
  ,                                       !- Zone Inside Convection Algorithm
  ,                                       !- Zone Outside Convection Algorithm
  ,                                       !- Zone Conditioning Equipment List Name
  {e362dfbb-8fdd-4f29-bd98-a9eebcdcf50c}, !- Zone Air Inlet Port List
  {43e1c8be-d6d9-4c79-8905-892f0c519219}, !- Zone Air Exhaust Port List
  {14e0eebe-2755-459e-8ddf-139413ca1c38}, !- Zone Air Node Name
  {7ccd61d6-b74c-4333-b4bb-03d26378fbfe}, !- Zone Return Air Port List
  ,                                       !- Primary Daylighting Control Name
  ,                                       !- Fraction of Zone Controlled by Primary Daylighting Control
  ,                                       !- Secondary Daylighting Control Name
  ,                                       !- Fraction of Zone Controlled by Secondary Daylighting Control
  ,                                       !- Illuminance Map Name
  ,                                       !- Group Rendering Name
  {7c7ad805-37d8-43f6-b96f-0faa599a71b2}, !- Thermostat Name
  No;                                     !- Use Ideal Air Loads

OS:Node,
  {d873d818-ea35-4213-8ac3-39c91c905261}, !- Handle