!- NOTE: Auto-generated from /test/osw_files/SFA_4units_1story_SL_UA_3Beds_2Baths_Denver_Central_System_Fan_Coil_Cooling_Only.osw

OS:Version,
  {48eef36d-a4cf-4695-b8c3-f637b38bc971}, !- Handle
  2.9.0;                                  !- Version Identifier

OS:SimulationControl,
  {3d8af2bb-b17d-4358-92f3-653ece283975}, !- Handle
  ,                                       !- Do Zone Sizing Calculation
  ,                                       !- Do System Sizing Calculation
  ,                                       !- Do Plant Sizing Calculation
  Yes;                                    !- Run Simulation for Sizing Periods

OS:Timestep,
  {8c681c0b-5c5f-439e-8b0d-5ce9eaafdb71}, !- Handle
  6;                                      !- Number of Timesteps per Hour

OS:ShadowCalculation,
  {e1b3da1f-c770-4598-9050-5dca3e0b4915}, !- Handle
  20,                                     !- Calculation Frequency
  200;                                    !- Maximum Figures in Shadow Overlap Calculations

OS:SurfaceConvectionAlgorithm:Outside,
  {380a974b-69a2-41df-bb94-eedafb555f97}, !- Handle
  DOE-2;                                  !- Algorithm

OS:SurfaceConvectionAlgorithm:Inside,
  {73daefad-31c4-4108-b875-1c5d0a5ceade}, !- Handle
  TARP;                                   !- Algorithm

OS:ZoneCapacitanceMultiplier:ResearchSpecial,
  {298526ce-fd5e-4bc4-964d-919a69e68169}, !- Handle
  ,                                       !- Temperature Capacity Multiplier
  15,                                     !- Humidity Capacity Multiplier
  ;                                       !- Carbon Dioxide Capacity Multiplier

OS:RunPeriod,
  {af01a2e0-949e-42cd-9046-ed6f74feb371}, !- Handle
  Run Period 1,                           !- Name
  1,                                      !- Begin Month
  1,                                      !- Begin Day of Month
  12,                                     !- End Month
  31,                                     !- End Day of Month
  ,                                       !- Use Weather File Holidays and Special Days
  ,                                       !- Use Weather File Daylight Saving Period
  ,                                       !- Apply Weekend Holiday Rule
  ,                                       !- Use Weather File Rain Indicators
  ,                                       !- Use Weather File Snow Indicators
  ;                                       !- Number of Times Runperiod to be Repeated

OS:YearDescription,
  {7dc927de-dd25-4c6c-8f0e-56b8f90894f0}, !- Handle
  2007,                                   !- Calendar Year
  ,                                       !- Day of Week for Start Day
  ;                                       !- Is Leap Year

OS:ThermalZone,
  {17a57bb3-156a-48ad-8e45-f1a981f1598a}, !- Handle
  living zone,                            !- Name
  ,                                       !- Multiplier
  ,                                       !- Ceiling Height {m}
  ,                                       !- Volume {m3}
  ,                                       !- Floor Area {m2}
  ,                                       !- Zone Inside Convection Algorithm
  ,                                       !- Zone Outside Convection Algorithm
  ,                                       !- Zone Conditioning Equipment List Name
  {1748767e-d907-466c-ba30-62662e430df4}, !- Zone Air Inlet Port List
  {0c6252fc-1742-4f74-83c3-a794a966b9e9}, !- Zone Air Exhaust Port List
  {3ae6b403-7a30-499e-800b-dde10a8f9598}, !- Zone Air Node Name
  {c667c341-695b-4fb7-acf4-ee3f28bf8a99}, !- Zone Return Air Port List
  ,                                       !- Primary Daylighting Control Name
  ,                                       !- Fraction of Zone Controlled by Primary Daylighting Control
  ,                                       !- Secondary Daylighting Control Name
  ,                                       !- Fraction of Zone Controlled by Secondary Daylighting Control
  ,                                       !- Illuminance Map Name
  ,                                       !- Group Rendering Name
  {19c424ba-cc0c-427a-835c-83caf032a99e}, !- Thermostat Name
  No;                                     !- Use Ideal Air Loads

OS:Node,
  {0eba5450-e675-4290-9aa8-7097ccc97ffe}, !- Handle
  Node 1,                                 !- Name
  {3ae6b403-7a30-499e-800b-dde10a8f9598}, !- Inlet Port
  ;                                       !- Outlet Port

OS:Connection,
  {3ae6b403-7a30-499e-800b-dde10a8f9598}, !- Handle
  {9ec5dc39-a801-448f-955f-33e623b031bd}, !- Name
  {17a57bb3-156a-48ad-8e45-f1a981f1598a}, !- Source Object
  11,                                     !- Outlet Port
  {0eba5450-e675-4290-9aa8-7097ccc97ffe}, !- Target Object
  2;                                      !- Inlet Port

OS:PortList,
  {1748767e-d907-466c-ba30-62662e430df4}, !- Handle
  {72f85624-bd12-41db-9349-669772983af4}, !- Name
  {17a57bb3-156a-48ad-8e45-f1a981f1598a}, !- HVAC Component
  {d24f45e4-e36f-4363-8464-a02228e5f13f}; !- Port 1

OS:PortList,
  {0c6252fc-1742-4f74-83c3-a794a966b9e9}, !- Handle
  {b125c97f-229a-4022-b417-ba94fa15b8a4}, !- Name
  {17a57bb3-156a-48ad-8e45-f1a981f1598a}, !- HVAC Component
  {d114550b-667d-4d5d-b8f4-f425f03762a6}; !- Port 1

OS:PortList,
  {c667c341-695b-4fb7-acf4-ee3f28bf8a99}, !- Handle
  {d97dab7a-95f8-46a4-aab1-686a0f4e5fc0}, !- Name
  {17a57bb3-156a-48ad-8e45-f1a981f1598a}; !- HVAC Component

OS:Sizing:Zone,
  {69c1f0f5-1ab1-4ffb-b660-ca51654092b7}, !- Handle
  {17a57bb3-156a-48ad-8e45-f1a981f1598a}, !- Zone or ZoneList Name
  SupplyAirTemperature,                   !- Zone Cooling Design Supply Air Temperature Input Method
  12.7777777777778,                       !- Zone Cooling Design Supply Air Temperature {C}
  11.11,                                  !- Zone Cooling Design Supply Air Temperature Difference {deltaC}
  SupplyAirTemperature,                   !- Zone Heating Design Supply Air Temperature Input Method
  40.0000000000001,                       !- Zone Heating Design Supply Air Temperature {C}
  11.11,                                  !- Zone Heating Design Supply Air Temperature Difference {deltaC}
  0.0085,                                 !- Zone Cooling Design Supply Air Humidity Ratio {kg-H2O/kg-air}
  0.008,                                  !- Zone Heating Design Supply Air Humidity Ratio {kg-H2O/kg-air}
  ,                                       !- Zone Heating Sizing Factor
  ,                                       !- Zone Cooling Sizing Factor
  DesignDay,                              !- Cooling Design Air Flow Method
  ,                                       !- Cooling Design Air Flow Rate {m3/s}
  ,                                       !- Cooling Minimum Air Flow per Zone Floor Area {m3/s-m2}
  ,                                       !- Cooling Minimum Air Flow {m3/s}
  ,                                       !- Cooling Minimum Air Flow Fraction
  DesignDay,                              !- Heating Design Air Flow Method
  ,                                       !- Heating Design Air Flow Rate {m3/s}
  ,                                       !- Heating Maximum Air Flow per Zone Floor Area {m3/s-m2}
  ,                                       !- Heating Maximum Air Flow {m3/s}
  ,                                       !- Heating Maximum Air Flow Fraction
  ,                                       !- Design Zone Air Distribution Effectiveness in Cooling Mode
  ,                                       !- Design Zone Air Distribution Effectiveness in Heating Mode
  No,                                     !- Account for Dedicated Outdoor Air System
  NeutralSupplyAir,                       !- Dedicated Outdoor Air System Control Strategy
  autosize,                               !- Dedicated Outdoor Air Low Setpoint Temperature for Design {C}
  autosize;                               !- Dedicated Outdoor Air High Setpoint Temperature for Design {C}

OS:ZoneHVAC:EquipmentList,
  {186300cc-03fd-46b3-b8cf-5eb1624fd43d}, !- Handle
  Zone HVAC Equipment List 1,             !- Name
  {17a57bb3-156a-48ad-8e45-f1a981f1598a}, !- Thermal Zone
  ,                                       !- Load Distribution Scheme
  {916acaa9-6a95-456d-a5b0-219ad9e78538}, !- Zone Equipment 1
  1,                                      !- Zone Equipment Cooling Sequence 1
  1,                                      !- Zone Equipment Heating or No-Load Sequence 1
  ,                                       !- Zone Equipment Sequential Cooling Fraction Schedule Name 1
  ;                                       !- Zone Equipment Sequential Heating Fraction Schedule Name 1

OS:Space,
  {da7c75b1-c233-4a70-a77d-af9360d083d0}, !- Handle
  living space,                           !- Name
  {8d4f403c-b5fb-4113-a415-13fbbf8157ce}, !- Space Type Name
  ,                                       !- Default Construction Set Name
  ,                                       !- Default Schedule Set Name
  ,                                       !- Direction of Relative North {deg}
  ,                                       !- X Origin {m}
  ,                                       !- Y Origin {m}
  ,                                       !- Z Origin {m}
  ,                                       !- Building Story Name
  {17a57bb3-156a-48ad-8e45-f1a981f1598a}, !- Thermal Zone Name
  ,                                       !- Part of Total Floor Area
  ,                                       !- Design Specification Outdoor Air Object Name
  {6aeefb29-bf00-4a2d-ba57-3e76f9a3d085}; !- Building Unit Name

OS:Surface,
  {3d1057d5-32ef-4f0f-9b1d-1af7208a2292}, !- Handle
  Surface 1,                              !- Name
  Floor,                                  !- Surface Type
  ,                                       !- Construction Name
  {da7c75b1-c233-4a70-a77d-af9360d083d0}, !- Space Name
  Foundation,                             !- Outside Boundary Condition
  ,                                       !- Outside Boundary Condition Object
  NoSun,                                  !- Sun Exposure
  NoWind,                                 !- Wind Exposure
  ,                                       !- View Factor to Ground
  ,                                       !- Number of Vertices
  0, -12.9315688143396, 0,                !- X,Y,Z Vertex 1 {m}
  0, 0, 0,                                !- X,Y,Z Vertex 2 {m}
  6.46578440716979, 0, 0,                 !- X,Y,Z Vertex 3 {m}
  6.46578440716979, -12.9315688143396, 0; !- X,Y,Z Vertex 4 {m}

OS:Surface,
  {49c581e1-0b35-419d-a37d-320de6ae467b}, !- Handle
  Surface 2,                              !- Name
  Wall,                                   !- Surface Type
  ,                                       !- Construction Name
  {da7c75b1-c233-4a70-a77d-af9360d083d0}, !- Space Name
  Outdoors,                               !- Outside Boundary Condition
  ,                                       !- Outside Boundary Condition Object
  SunExposed,                             !- Sun Exposure
  WindExposed,                            !- Wind Exposure
  ,                                       !- View Factor to Ground
  ,                                       !- Number of Vertices
  0, 0, 2.4384,                           !- X,Y,Z Vertex 1 {m}
  0, 0, 0,                                !- X,Y,Z Vertex 2 {m}
  0, -12.9315688143396, 0,                !- X,Y,Z Vertex 3 {m}
  0, -12.9315688143396, 2.4384;           !- X,Y,Z Vertex 4 {m}

OS:Surface,
  {e9cedb10-2c78-46a8-938b-44d764b3ea29}, !- Handle
  Surface 3,                              !- Name
  Wall,                                   !- Surface Type
  ,                                       !- Construction Name
  {da7c75b1-c233-4a70-a77d-af9360d083d0}, !- Space Name
  Outdoors,                               !- Outside Boundary Condition
  ,                                       !- Outside Boundary Condition Object
  SunExposed,                             !- Sun Exposure
  WindExposed,                            !- Wind Exposure
  ,                                       !- View Factor to Ground
  ,                                       !- Number of Vertices
  6.46578440716979, 0, 2.4384,            !- X,Y,Z Vertex 1 {m}
  6.46578440716979, 0, 0,                 !- X,Y,Z Vertex 2 {m}
  0, 0, 0,                                !- X,Y,Z Vertex 3 {m}
  0, 0, 2.4384;                           !- X,Y,Z Vertex 4 {m}

OS:Surface,
  {db95eef7-47d0-4d0c-81b7-bac98701f617}, !- Handle
  Surface 4,                              !- Name
  Wall,                                   !- Surface Type
  ,                                       !- Construction Name
  {da7c75b1-c233-4a70-a77d-af9360d083d0}, !- Space Name
  Surface,                                !- Outside Boundary Condition
  {67f49f33-ff12-47c1-91ef-645554b3c267}, !- Outside Boundary Condition Object
  NoSun,                                  !- Sun Exposure
  NoWind,                                 !- Wind Exposure
  ,                                       !- View Factor to Ground
  ,                                       !- Number of Vertices
  6.46578440716979, -12.9315688143396, 2.4384, !- X,Y,Z Vertex 1 {m}
  6.46578440716979, -12.9315688143396, 0, !- X,Y,Z Vertex 2 {m}
  6.46578440716979, 0, 0,                 !- X,Y,Z Vertex 3 {m}
  6.46578440716979, 0, 2.4384;            !- X,Y,Z Vertex 4 {m}

OS:Surface,
  {ed0e1cd6-c5c1-47e2-b85d-4f8c0d57431c}, !- Handle
  Surface 5,                              !- Name
  Wall,                                   !- Surface Type
  ,                                       !- Construction Name
  {da7c75b1-c233-4a70-a77d-af9360d083d0}, !- Space Name
  Outdoors,                               !- Outside Boundary Condition
  ,                                       !- Outside Boundary Condition Object
  SunExposed,                             !- Sun Exposure
  WindExposed,                            !- Wind Exposure
  ,                                       !- View Factor to Ground
  ,                                       !- Number of Vertices
  0, -12.9315688143396, 2.4384,           !- X,Y,Z Vertex 1 {m}
  0, -12.9315688143396, 0,                !- X,Y,Z Vertex 2 {m}
  6.46578440716979, -12.9315688143396, 0, !- X,Y,Z Vertex 3 {m}
  6.46578440716979, -12.9315688143396, 2.4384; !- X,Y,Z Vertex 4 {m}

OS:Surface,
  {b786e053-a426-4e68-9267-cc26d7126089}, !- Handle
  Surface 6,                              !- Name
  RoofCeiling,                            !- Surface Type
  ,                                       !- Construction Name
  {da7c75b1-c233-4a70-a77d-af9360d083d0}, !- Space Name
  Surface,                                !- Outside Boundary Condition
  {ddfefea1-4b37-4f82-86aa-6a6bae2800fd}, !- Outside Boundary Condition Object
  NoSun,                                  !- Sun Exposure
  NoWind,                                 !- Wind Exposure
  ,                                       !- View Factor to Ground
  ,                                       !- Number of Vertices
  6.46578440716979, -12.9315688143396, 2.4384, !- X,Y,Z Vertex 1 {m}
  6.46578440716979, 0, 2.4384,            !- X,Y,Z Vertex 2 {m}
  0, 0, 2.4384,                           !- X,Y,Z Vertex 3 {m}
  0, -12.9315688143396, 2.4384;           !- X,Y,Z Vertex 4 {m}

OS:SpaceType,
  {8d4f403c-b5fb-4113-a415-13fbbf8157ce}, !- Handle
  Space Type 1,                           !- Name
  ,                                       !- Default Construction Set Name
  ,                                       !- Default Schedule Set Name
  ,                                       !- Group Rendering Name
  ,                                       !- Design Specification Outdoor Air Object Name
  ,                                       !- Standards Template
  ,                                       !- Standards Building Type
  living;                                 !- Standards Space Type

OS:ThermalZone,
  {5d1ffaf3-d029-49a1-87d2-bcbea135940b}, !- Handle
  living zone|unit 2,                     !- Name
  ,                                       !- Multiplier
  ,                                       !- Ceiling Height {m}
  ,                                       !- Volume {m3}
  ,                                       !- Floor Area {m2}
  ,                                       !- Zone Inside Convection Algorithm
  ,                                       !- Zone Outside Convection Algorithm
  ,                                       !- Zone Conditioning Equipment List Name
  {bdc61bfa-fa5a-4911-85ab-b2f02be5903f}, !- Zone Air Inlet Port List
  {4ef0a3ca-406d-4adb-9582-77a1b905c07d}, !- Zone Air Exhaust Port List
  {3f543ad1-c961-4ce2-b101-6da81155afe7}, !- Zone Air Node Name
  {71a2cefe-2f18-44f9-9500-99b420c80c24}, !- Zone Return Air Port List
  ,                                       !- Primary Daylighting Control Name
  ,                                       !- Fraction of Zone Controlled by Primary Daylighting Control
  ,                                       !- Secondary Daylighting Control Name
  ,                                       !- Fraction of Zone Controlled by Secondary Daylighting Control
  ,                                       !- Illuminance Map Name
  ,                                       !- Group Rendering Name
  {f94ee3bd-c0e8-4db6-a713-ec52a7c9206d}, !- Thermostat Name
  No;                                     !- Use Ideal Air Loads

OS:Node,
  {5073f0df-9e25-4bf4-8ec8-1e1d6dae68c6}, !- Handle
  Node 2,                                 !- Name
  {3f543ad1-c961-4ce2-b101-6da81155afe7}, !- Inlet Port
  ;                                       !- Outlet Port

OS:Connection,
  {3f543ad1-c961-4ce2-b101-6da81155afe7}, !- Handle
  {79288dce-7386-43d3-9bda-8c733089e95f}, !- Name
  {5d1ffaf3-d029-49a1-87d2-bcbea135940b}, !- Source Object
  11,                                     !- Outlet Port
  {5073f0df-9e25-4bf4-8ec8-1e1d6dae68c6}, !- Target Object
  2;                                      !- Inlet Port

OS:PortList,
  {bdc61bfa-fa5a-4911-85ab-b2f02be5903f}, !- Handle
  {fa1d8a12-04a4-4c12-8c1e-4eac46ee6273}, !- Name
  {5d1ffaf3-d029-49a1-87d2-bcbea135940b}, !- HVAC Component
  {2f6cdd01-40d3-4b23-bcbe-a1aa8874ad01}; !- Port 1

OS:PortList,
  {4ef0a3ca-406d-4adb-9582-77a1b905c07d}, !- Handle
  {6af11557-a906-47ed-8ef1-8fc1e60d6502}, !- Name
  {5d1ffaf3-d029-49a1-87d2-bcbea135940b}, !- HVAC Component
  {0f4d0b90-dee7-482a-b6e1-b82abd1d7488}; !- Port 1

OS:PortList,
  {71a2cefe-2f18-44f9-9500-99b420c80c24}, !- Handle
  {d61779e4-6da5-456b-82d9-f72bc707b776}, !- Name
  {5d1ffaf3-d029-49a1-87d2-bcbea135940b}; !- HVAC Component

OS:Sizing:Zone,
  {fb1dad7e-f071-4820-8b33-f4b255654e6e}, !- Handle
  {5d1ffaf3-d029-49a1-87d2-bcbea135940b}, !- Zone or ZoneList Name
  SupplyAirTemperature,                   !- Zone Cooling Design Supply Air Temperature Input Method
  12.7777777777778,                       !- Zone Cooling Design Supply Air Temperature {C}
  11.11,                                  !- Zone Cooling Design Supply Air Temperature Difference {deltaC}
  SupplyAirTemperature,                   !- Zone Heating Design Supply Air Temperature Input Method
  40.0000000000001,                       !- Zone Heating Design Supply Air Temperature {C}
  11.11,                                  !- Zone Heating Design Supply Air Temperature Difference {deltaC}
  0.0085,                                 !- Zone Cooling Design Supply Air Humidity Ratio {kg-H2O/kg-air}
  0.008,                                  !- Zone Heating Design Supply Air Humidity Ratio {kg-H2O/kg-air}
  ,                                       !- Zone Heating Sizing Factor
  ,                                       !- Zone Cooling Sizing Factor
  DesignDay,                              !- Cooling Design Air Flow Method
  ,                                       !- Cooling Design Air Flow Rate {m3/s}
  ,                                       !- Cooling Minimum Air Flow per Zone Floor Area {m3/s-m2}
  ,                                       !- Cooling Minimum Air Flow {m3/s}
  ,                                       !- Cooling Minimum Air Flow Fraction
  DesignDay,                              !- Heating Design Air Flow Method
  ,                                       !- Heating Design Air Flow Rate {m3/s}
  ,                                       !- Heating Maximum Air Flow per Zone Floor Area {m3/s-m2}
  ,                                       !- Heating Maximum Air Flow {m3/s}
  ,                                       !- Heating Maximum Air Flow Fraction
  ,                                       !- Design Zone Air Distribution Effectiveness in Cooling Mode
  ,                                       !- Design Zone Air Distribution Effectiveness in Heating Mode
  No,                                     !- Account for Dedicated Outdoor Air System
  NeutralSupplyAir,                       !- Dedicated Outdoor Air System Control Strategy
  autosize,                               !- Dedicated Outdoor Air Low Setpoint Temperature for Design {C}
  autosize;                               !- Dedicated Outdoor Air High Setpoint Temperature for Design {C}

OS:ZoneHVAC:EquipmentList,
  {cb4f18ba-4a34-4c59-8042-41f8f50189cd}, !- Handle
  Zone HVAC Equipment List 2,             !- Name
  {5d1ffaf3-d029-49a1-87d2-bcbea135940b}, !- Thermal Zone
  ,                                       !- Load Distribution Scheme
  {2128ba7e-244a-4ce9-8b05-eff0c801b06c}, !- Zone Equipment 1
  1,                                      !- Zone Equipment Cooling Sequence 1
  1,                                      !- Zone Equipment Heating or No-Load Sequence 1
  ,                                       !- Zone Equipment Sequential Cooling Fraction Schedule Name 1
  ;                                       !- Zone Equipment Sequential Heating Fraction Schedule Name 1

OS:Space,
  {89ba91ba-1e7e-4ef5-a611-dee31bc7e410}, !- Handle
  living space|unit 2|story 1,            !- Name
  {8d4f403c-b5fb-4113-a415-13fbbf8157ce}, !- Space Type Name
  ,                                       !- Default Construction Set Name
  ,                                       !- Default Schedule Set Name
  -0,                                     !- Direction of Relative North {deg}
  0,                                      !- X Origin {m}
  0,                                      !- Y Origin {m}
  0,                                      !- Z Origin {m}
  ,                                       !- Building Story Name
  {5d1ffaf3-d029-49a1-87d2-bcbea135940b}, !- Thermal Zone Name
  ,                                       !- Part of Total Floor Area
  ,                                       !- Design Specification Outdoor Air Object Name
  {bea5cde9-e31d-4c9c-a243-77cdc2e2e590}; !- Building Unit Name

OS:Surface,
  {31c49772-dcba-46f1-ba0e-4f49a739fff3}, !- Handle
  Surface 12,                             !- Name
  Wall,                                   !- Surface Type
  ,                                       !- Construction Name
  {89ba91ba-1e7e-4ef5-a611-dee31bc7e410}, !- Space Name
  Outdoors,                               !- Outside Boundary Condition
  ,                                       !- Outside Boundary Condition Object
  SunExposed,                             !- Sun Exposure
  WindExposed,                            !- Wind Exposure
  ,                                       !- View Factor to Ground
  ,                                       !- Number of Vertices
  6.46578440716979, -12.9315688143396, 2.4384, !- X,Y,Z Vertex 1 {m}
  6.46578440716979, -12.9315688143396, 0, !- X,Y,Z Vertex 2 {m}
  12.9315688143396, -12.9315688143396, 0, !- X,Y,Z Vertex 3 {m}
  12.9315688143396, -12.9315688143396, 2.4384; !- X,Y,Z Vertex 4 {m}

OS:Surface,
  {67f49f33-ff12-47c1-91ef-645554b3c267}, !- Handle
  Surface 13,                             !- Name
  Wall,                                   !- Surface Type
  ,                                       !- Construction Name
  {89ba91ba-1e7e-4ef5-a611-dee31bc7e410}, !- Space Name
  Surface,                                !- Outside Boundary Condition
  {db95eef7-47d0-4d0c-81b7-bac98701f617}, !- Outside Boundary Condition Object
  NoSun,                                  !- Sun Exposure
  NoWind,                                 !- Wind Exposure
  ,                                       !- View Factor to Ground
  ,                                       !- Number of Vertices
  6.46578440716979, 0, 2.4384,            !- X,Y,Z Vertex 1 {m}
  6.46578440716979, 0, 0,                 !- X,Y,Z Vertex 2 {m}
  6.46578440716979, -12.9315688143396, 0, !- X,Y,Z Vertex 3 {m}
  6.46578440716979, -12.9315688143396, 2.4384; !- X,Y,Z Vertex 4 {m}

OS:Surface,
  {606c0e63-afea-4c1b-96a4-925a09ceacb0}, !- Handle
  Surface 14,                             !- Name
  Wall,                                   !- Surface Type
  ,                                       !- Construction Name
  {89ba91ba-1e7e-4ef5-a611-dee31bc7e410}, !- Space Name
  Outdoors,                               !- Outside Boundary Condition
  ,                                       !- Outside Boundary Condition Object
  SunExposed,                             !- Sun Exposure
  WindExposed,                            !- Wind Exposure
  ,                                       !- View Factor to Ground
  ,                                       !- Number of Vertices
  12.9315688143396, 0, 2.4384,            !- X,Y,Z Vertex 1 {m}
  12.9315688143396, 0, 0,                 !- X,Y,Z Vertex 2 {m}
  6.46578440716979, 0, 0,                 !- X,Y,Z Vertex 3 {m}
  6.46578440716979, 0, 2.4384;            !- X,Y,Z Vertex 4 {m}

OS:Surface,
  {e4fbe61e-0382-4a0d-868d-0eb2ad7f5704}, !- Handle
  Surface 15,                             !- Name
  Floor,                                  !- Surface Type
  ,                                       !- Construction Name
  {89ba91ba-1e7e-4ef5-a611-dee31bc7e410}, !- Space Name
  Foundation,                             !- Outside Boundary Condition
  ,                                       !- Outside Boundary Condition Object
  NoSun,                                  !- Sun Exposure
  NoWind,                                 !- Wind Exposure
  ,                                       !- View Factor to Ground
  ,                                       !- Number of Vertices
  6.46578440716979, -12.9315688143396, 0, !- X,Y,Z Vertex 1 {m}
  6.46578440716979, 0, 0,                 !- X,Y,Z Vertex 2 {m}
  12.9315688143396, 0, 0,                 !- X,Y,Z Vertex 3 {m}
  12.9315688143396, -12.9315688143396, 0; !- X,Y,Z Vertex 4 {m}

OS:Surface,
  {ce4b32ec-7b0d-491a-8dcf-96023789ef1c}, !- Handle
  Surface 16,                             !- Name
  Wall,                                   !- Surface Type
  ,                                       !- Construction Name
  {89ba91ba-1e7e-4ef5-a611-dee31bc7e410}, !- Space Name
  Surface,                                !- Outside Boundary Condition
  {9d08acfd-ae8c-4364-8d53-6a925880d558}, !- Outside Boundary Condition Object
  NoSun,                                  !- Sun Exposure
  NoWind,                                 !- Wind Exposure
  ,                                       !- View Factor to Ground
  ,                                       !- Number of Vertices
  12.9315688143396, -12.9315688143396, 2.4384, !- X,Y,Z Vertex 1 {m}
  12.9315688143396, -12.9315688143396, 0, !- X,Y,Z Vertex 2 {m}
  12.9315688143396, 0, 0,                 !- X,Y,Z Vertex 3 {m}
  12.9315688143396, 0, 2.4384;            !- X,Y,Z Vertex 4 {m}

OS:Surface,
  {4c17ab65-87d7-4f0c-9374-c206b749e174}, !- Handle
  Surface 17,                             !- Name
  RoofCeiling,                            !- Surface Type
  ,                                       !- Construction Name
  {89ba91ba-1e7e-4ef5-a611-dee31bc7e410}, !- Space Name
  Surface,                                !- Outside Boundary Condition
  {d111d9a3-b802-4a1b-9d3d-fecd0599adca}, !- Outside Boundary Condition Object
  NoSun,                                  !- Sun Exposure
  NoWind,                                 !- Wind Exposure
  ,                                       !- View Factor to Ground
  ,                                       !- Number of Vertices
  12.9315688143396, -12.9315688143396, 2.4384, !- X,Y,Z Vertex 1 {m}
  12.9315688143396, 0, 2.4384,            !- X,Y,Z Vertex 2 {m}
  6.46578440716979, 0, 2.4384,            !- X,Y,Z Vertex 3 {m}
  6.46578440716979, -12.9315688143396, 2.4384; !- X,Y,Z Vertex 4 {m}

OS:ThermalZone,
  {9eec5ff6-3f00-4fdc-a969-865985e4182a}, !- Handle
  living zone|unit 3,                     !- Name
  ,                                       !- Multiplier
  ,                                       !- Ceiling Height {m}
  ,                                       !- Volume {m3}
  ,                                       !- Floor Area {m2}
  ,                                       !- Zone Inside Convection Algorithm
  ,                                       !- Zone Outside Convection Algorithm
  ,                                       !- Zone Conditioning Equipment List Name
  {61e8bf82-774c-41f0-a85b-1199442f7c91}, !- Zone Air Inlet Port List
  {c68217f8-902b-408b-8843-51bf42cf9d56}, !- Zone Air Exhaust Port List
  {943facf4-2a7b-475a-8641-405122964564}, !- Zone Air Node Name
  {0117e4dd-0b40-479e-975f-7cdf79858baa}, !- Zone Return Air Port List
  ,                                       !- Primary Daylighting Control Name
  ,                                       !- Fraction of Zone Controlled by Primary Daylighting Control
  ,                                       !- Secondary Daylighting Control Name
  ,                                       !- Fraction of Zone Controlled by Secondary Daylighting Control
  ,                                       !- Illuminance Map Name
  ,                                       !- Group Rendering Name
  {e920315d-d335-4f5b-b013-c7d346589175}, !- Thermostat Name
  No;                                     !- Use Ideal Air Loads

OS:Node,