!- NOTE: Auto-generated from /test/osw_files/SFA_4units_1story_SL_UA_3Beds_2Baths_Denver_Central_System_Boiler_Baseboards_NoSetpoints.osw

OS:Version,
  {d99cc303-b340-4a71-b9cb-9d8575de61d0}, !- Handle
  2.9.0;                                  !- Version Identifier

OS:SimulationControl,
  {9b6d3166-a78a-4e26-9474-797bde9f1a53}, !- Handle
  ,                                       !- Do Zone Sizing Calculation
  ,                                       !- Do System Sizing Calculation
  ,                                       !- Do Plant Sizing Calculation
  Yes;                                    !- Run Simulation for Sizing Periods

OS:Timestep,
  {b674e75e-87c1-489d-93ee-b57cd88f7062}, !- Handle
  6;                                      !- Number of Timesteps per Hour

OS:ShadowCalculation,
  {e54911e2-9905-44f9-99fc-a072add6a22c}, !- Handle
  20,                                     !- Calculation Frequency
  200;                                    !- Maximum Figures in Shadow Overlap Calculations

OS:SurfaceConvectionAlgorithm:Outside,
  {051cb821-3c8c-447f-b0d2-99960ca22552}, !- Handle
  DOE-2;                                  !- Algorithm

OS:SurfaceConvectionAlgorithm:Inside,
  {c3422319-5578-48aa-a952-df27da808e5a}, !- Handle
  TARP;                                   !- Algorithm

OS:ZoneCapacitanceMultiplier:ResearchSpecial,
  {aefd9369-11df-45da-9a4b-affaf18a5d4a}, !- Handle
  ,                                       !- Temperature Capacity Multiplier
  15,                                     !- Humidity Capacity Multiplier
  ;                                       !- Carbon Dioxide Capacity Multiplier

OS:RunPeriod,
  {3faafb5e-0dc7-47b8-8081-dc164c8acb57}, !- Handle
  Run Period 1,                           !- Name
  1,                                      !- Begin Month
  1,                                      !- Begin Day of Month
  12,                                     !- End Month
  31,                                     !- End Day of Month
  ,                                       !- Use Weather File Holidays and Special Days
  ,                                       !- Use Weather File Daylight Saving Period
  ,                                       !- Apply Weekend Holiday Rule
  ,                                       !- Use Weather File Rain Indicators
  ,                                       !- Use Weather File Snow Indicators
  ;                                       !- Number of Times Runperiod to be Repeated

OS:YearDescription,
  {06b32a49-042e-49eb-a747-aa0fbdbafcdd}, !- Handle
  2007,                                   !- Calendar Year
  ,                                       !- Day of Week for Start Day
  ;                                       !- Is Leap Year

OS:ThermalZone,
  {0c356af7-5958-4f04-94bf-cf4443589aea}, !- Handle
  living zone,                            !- Name
  ,                                       !- Multiplier
  ,                                       !- Ceiling Height {m}
  ,                                       !- Volume {m3}
  ,                                       !- Floor Area {m2}
  ,                                       !- Zone Inside Convection Algorithm
  ,                                       !- Zone Outside Convection Algorithm
  ,                                       !- Zone Conditioning Equipment List Name
  {d6a69b68-9dd2-486f-9a03-0c0dbdec104b}, !- Zone Air Inlet Port List
  {085691f9-198e-45cb-8a81-5736555fbc86}, !- Zone Air Exhaust Port List
  {428524d4-952f-42ca-9c3a-93cfef911bd4}, !- Zone Air Node Name
  {2537f48e-f6db-4855-a673-06bb7fbd15fc}, !- Zone Return Air Port List
  ,                                       !- Primary Daylighting Control Name
  ,                                       !- Fraction of Zone Controlled by Primary Daylighting Control
  ,                                       !- Secondary Daylighting Control Name
  ,                                       !- Fraction of Zone Controlled by Secondary Daylighting Control
  ,                                       !- Illuminance Map Name
  ,                                       !- Group Rendering Name
  ,                                       !- Thermostat Name
  No;                                     !- Use Ideal Air Loads

OS:Node,
  {25d7eccb-060c-49c8-ae03-03812cfea9f5}, !- Handle
  Node 1,                                 !- Name
  {428524d4-952f-42ca-9c3a-93cfef911bd4}, !- Inlet Port
  ;                                       !- Outlet Port

OS:Connection,
  {428524d4-952f-42ca-9c3a-93cfef911bd4}, !- Handle
  {1f460816-059c-4fb9-9def-4222168c55ec}, !- Name
  {0c356af7-5958-4f04-94bf-cf4443589aea}, !- Source Object
  11,                                     !- Outlet Port
  {25d7eccb-060c-49c8-ae03-03812cfea9f5}, !- Target Object
  2;                                      !- Inlet Port

OS:PortList,
  {d6a69b68-9dd2-486f-9a03-0c0dbdec104b}, !- Handle
  {b8ea349b-35c0-453e-8622-f4a8df806404}, !- Name
  {0c356af7-5958-4f04-94bf-cf4443589aea}; !- HVAC Component

OS:PortList,
  {085691f9-198e-45cb-8a81-5736555fbc86}, !- Handle
  {eeede27e-1ecd-4141-9bfc-17ad94157bff}, !- Name
  {0c356af7-5958-4f04-94bf-cf4443589aea}; !- HVAC Component

OS:PortList,
  {2537f48e-f6db-4855-a673-06bb7fbd15fc}, !- Handle
  {0e655390-7214-4325-b92c-134f28dc74fb}, !- Name
  {0c356af7-5958-4f04-94bf-cf4443589aea}; !- HVAC Component

OS:Sizing:Zone,
  {971e4af8-9e2d-43c7-ab42-0227324753c5}, !- Handle
  {0c356af7-5958-4f04-94bf-cf4443589aea}, !- Zone or ZoneList Name
  SupplyAirTemperature,                   !- Zone Cooling Design Supply Air Temperature Input Method
  14,                                     !- Zone Cooling Design Supply Air Temperature {C}
  11.11,                                  !- Zone Cooling Design Supply Air Temperature Difference {deltaC}
  SupplyAirTemperature,                   !- Zone Heating Design Supply Air Temperature Input Method
  40,                                     !- Zone Heating Design Supply Air Temperature {C}
  11.11,                                  !- Zone Heating Design Supply Air Temperature Difference {deltaC}
  0.0085,                                 !- Zone Cooling Design Supply Air Humidity Ratio {kg-H2O/kg-air}
  0.008,                                  !- Zone Heating Design Supply Air Humidity Ratio {kg-H2O/kg-air}
  ,                                       !- Zone Heating Sizing Factor
  ,                                       !- Zone Cooling Sizing Factor
  DesignDay,                              !- Cooling Design Air Flow Method
  ,                                       !- Cooling Design Air Flow Rate {m3/s}
  ,                                       !- Cooling Minimum Air Flow per Zone Floor Area {m3/s-m2}
  ,                                       !- Cooling Minimum Air Flow {m3/s}
  ,                                       !- Cooling Minimum Air Flow Fraction
  DesignDay,                              !- Heating Design Air Flow Method
  ,                                       !- Heating Design Air Flow Rate {m3/s}
  ,                                       !- Heating Maximum Air Flow per Zone Floor Area {m3/s-m2}
  ,                                       !- Heating Maximum Air Flow {m3/s}
  ,                                       !- Heating Maximum Air Flow Fraction
  ,                                       !- Design Zone Air Distribution Effectiveness in Cooling Mode
  ,                                       !- Design Zone Air Distribution Effectiveness in Heating Mode
  No,                                     !- Account for Dedicated Outdoor Air System
  NeutralSupplyAir,                       !- Dedicated Outdoor Air System Control Strategy
  autosize,                               !- Dedicated Outdoor Air Low Setpoint Temperature for Design {C}
  autosize;                               !- Dedicated Outdoor Air High Setpoint Temperature for Design {C}

OS:ZoneHVAC:EquipmentList,
  {5a86b9eb-7281-482f-9f25-b78e356d0e22}, !- Handle
  Zone HVAC Equipment List 1,             !- Name
  {0c356af7-5958-4f04-94bf-cf4443589aea}, !- Thermal Zone
  ,                                       !- Load Distribution Scheme
  {d0b9ced0-d58b-41ba-a3e2-e58294513f42}, !- Zone Equipment 1
  1,                                      !- Zone Equipment Cooling Sequence 1
  1,                                      !- Zone Equipment Heating or No-Load Sequence 1
  ,                                       !- Zone Equipment Sequential Cooling Fraction Schedule Name 1
  ;                                       !- Zone Equipment Sequential Heating Fraction Schedule Name 1

OS:Space,
  {e23f871c-2ecd-4f2e-b482-9c9846916303}, !- Handle
  living space,                           !- Name
  {3d90ed87-d68b-43c6-8e90-4e1e6b7bd54c}, !- Space Type Name
  ,                                       !- Default Construction Set Name
  ,                                       !- Default Schedule Set Name
  ,                                       !- Direction of Relative North {deg}
  ,                                       !- X Origin {m}
  ,                                       !- Y Origin {m}
  ,                                       !- Z Origin {m}
  ,                                       !- Building Story Name
  {0c356af7-5958-4f04-94bf-cf4443589aea}, !- Thermal Zone Name
  ,                                       !- Part of Total Floor Area
  ,                                       !- Design Specification Outdoor Air Object Name
  {9180134f-c274-4836-9ca1-f8c763958e63}; !- Building Unit Name

OS:Surface,
  {0c69d476-e715-4102-97bc-652822f8dd91}, !- Handle
  Surface 1,                              !- Name
  Floor,                                  !- Surface Type
  ,                                       !- Construction Name
  {e23f871c-2ecd-4f2e-b482-9c9846916303}, !- Space Name
  Foundation,                             !- Outside Boundary Condition
  ,                                       !- Outside Boundary Condition Object
  NoSun,                                  !- Sun Exposure
  NoWind,                                 !- Wind Exposure
  ,                                       !- View Factor to Ground
  ,                                       !- Number of Vertices
  0, -12.9315688143396, 0,                !- X,Y,Z Vertex 1 {m}
  0, 0, 0,                                !- X,Y,Z Vertex 2 {m}
  6.46578440716979, 0, 0,                 !- X,Y,Z Vertex 3 {m}
  6.46578440716979, -12.9315688143396, 0; !- X,Y,Z Vertex 4 {m}

OS:Surface,
  {0b6ecbf2-9303-4026-aaaf-c4f7d773a3fb}, !- Handle
  Surface 2,                              !- Name
  Wall,                                   !- Surface Type
  ,                                       !- Construction Name
  {e23f871c-2ecd-4f2e-b482-9c9846916303}, !- Space Name
  Outdoors,                               !- Outside Boundary Condition
  ,                                       !- Outside Boundary Condition Object
  SunExposed,                             !- Sun Exposure
  WindExposed,                            !- Wind Exposure
  ,                                       !- View Factor to Ground
  ,                                       !- Number of Vertices
  0, 0, 2.4384,                           !- X,Y,Z Vertex 1 {m}
  0, 0, 0,                                !- X,Y,Z Vertex 2 {m}
  0, -12.9315688143396, 0,                !- X,Y,Z Vertex 3 {m}
  0, -12.9315688143396, 2.4384;           !- X,Y,Z Vertex 4 {m}

OS:Surface,
  {a9ee39d8-7a33-49a8-842e-a82f89a6d9bb}, !- Handle
  Surface 3,                              !- Name
  Wall,                                   !- Surface Type
  ,                                       !- Construction Name
  {e23f871c-2ecd-4f2e-b482-9c9846916303}, !- Space Name
  Outdoors,                               !- Outside Boundary Condition
  ,                                       !- Outside Boundary Condition Object
  SunExposed,                             !- Sun Exposure
  WindExposed,                            !- Wind Exposure
  ,                                       !- View Factor to Ground
  ,                                       !- Number of Vertices
  6.46578440716979, 0, 2.4384,            !- X,Y,Z Vertex 1 {m}
  6.46578440716979, 0, 0,                 !- X,Y,Z Vertex 2 {m}
  0, 0, 0,                                !- X,Y,Z Vertex 3 {m}
  0, 0, 2.4384;                           !- X,Y,Z Vertex 4 {m}

OS:Surface,
  {4a5030c4-1f35-4393-9609-715754a4dac9}, !- Handle
  Surface 4,                              !- Name
  Wall,                                   !- Surface Type
  ,                                       !- Construction Name
  {e23f871c-2ecd-4f2e-b482-9c9846916303}, !- Space Name
  Surface,                                !- Outside Boundary Condition
  {2c337a40-8b73-46bd-837c-344df8f6f0f8}, !- Outside Boundary Condition Object
  NoSun,                                  !- Sun Exposure
  NoWind,                                 !- Wind Exposure
  ,                                       !- View Factor to Ground
  ,                                       !- Number of Vertices
  6.46578440716979, -12.9315688143396, 2.4384, !- X,Y,Z Vertex 1 {m}
  6.46578440716979, -12.9315688143396, 0, !- X,Y,Z Vertex 2 {m}
  6.46578440716979, 0, 0,                 !- X,Y,Z Vertex 3 {m}
  6.46578440716979, 0, 2.4384;            !- X,Y,Z Vertex 4 {m}

OS:Surface,
  {fa8f333c-320b-4bac-bcdc-5731f7609881}, !- Handle
  Surface 5,                              !- Name
  Wall,                                   !- Surface Type
  ,                                       !- Construction Name
  {e23f871c-2ecd-4f2e-b482-9c9846916303}, !- Space Name
  Outdoors,                               !- Outside Boundary Condition
  ,                                       !- Outside Boundary Condition Object
  SunExposed,                             !- Sun Exposure
  WindExposed,                            !- Wind Exposure
  ,                                       !- View Factor to Ground
  ,                                       !- Number of Vertices
  0, -12.9315688143396, 2.4384,           !- X,Y,Z Vertex 1 {m}
  0, -12.9315688143396, 0,                !- X,Y,Z Vertex 2 {m}
  6.46578440716979, -12.9315688143396, 0, !- X,Y,Z Vertex 3 {m}
  6.46578440716979, -12.9315688143396, 2.4384; !- X,Y,Z Vertex 4 {m}

OS:Surface,
  {b62aed62-06d5-43b1-8d6f-2f55965e9d55}, !- Handle
  Surface 6,                              !- Name
  RoofCeiling,                            !- Surface Type
  ,                                       !- Construction Name
  {e23f871c-2ecd-4f2e-b482-9c9846916303}, !- Space Name
  Surface,                                !- Outside Boundary Condition
  {8a8426eb-c490-427e-9c73-987e8e92a729}, !- Outside Boundary Condition Object
  NoSun,                                  !- Sun Exposure
  NoWind,                                 !- Wind Exposure
  ,                                       !- View Factor to Ground
  ,                                       !- Number of Vertices
  6.46578440716979, -12.9315688143396, 2.4384, !- X,Y,Z Vertex 1 {m}
  6.46578440716979, 0, 2.4384,            !- X,Y,Z Vertex 2 {m}
  0, 0, 2.4384,                           !- X,Y,Z Vertex 3 {m}
  0, -12.9315688143396, 2.4384;           !- X,Y,Z Vertex 4 {m}

OS:SpaceType,
  {3d90ed87-d68b-43c6-8e90-4e1e6b7bd54c}, !- Handle
  Space Type 1,                           !- Name
  ,                                       !- Default Construction Set Name
  ,                                       !- Default Schedule Set Name
  ,                                       !- Group Rendering Name
  ,                                       !- Design Specification Outdoor Air Object Name
  ,                                       !- Standards Template
  ,                                       !- Standards Building Type
  living;                                 !- Standards Space Type

OS:ThermalZone,
  {3c89729a-1d72-47d2-bc64-c003d66f5439}, !- Handle
  living zone|unit 2,                     !- Name
  ,                                       !- Multiplier
  ,                                       !- Ceiling Height {m}
  ,                                       !- Volume {m3}
  ,                                       !- Floor Area {m2}
  ,                                       !- Zone Inside Convection Algorithm
  ,                                       !- Zone Outside Convection Algorithm
  ,                                       !- Zone Conditioning Equipment List Name
  {ae364561-9c9e-4ebd-9e28-4cf42255b0a8}, !- Zone Air Inlet Port List
  {8aa7748a-1904-427a-bdd3-d4519fcb823d}, !- Zone Air Exhaust Port List
  {7ed62969-5796-4123-b5b6-9c656ba83d8e}, !- Zone Air Node Name
  {787841ae-80f7-4812-aba7-aace4bb2e1fa}, !- Zone Return Air Port List
  ,                                       !- Primary Daylighting Control Name
  ,                                       !- Fraction of Zone Controlled by Primary Daylighting Control
  ,                                       !- Secondary Daylighting Control Name
  ,                                       !- Fraction of Zone Controlled by Secondary Daylighting Control
  ,                                       !- Illuminance Map Name
  ,                                       !- Group Rendering Name
  ,                                       !- Thermostat Name
  No;                                     !- Use Ideal Air Loads

OS:Node,
  {418f215b-3c8b-448b-90d8-9b152ad17e20}, !- Handle
  Node 2,                                 !- Name
  {7ed62969-5796-4123-b5b6-9c656ba83d8e}, !- Inlet Port
  ;                                       !- Outlet Port

OS:Connection,
  {7ed62969-5796-4123-b5b6-9c656ba83d8e}, !- Handle
  {bceb1fcd-1bf6-4c0e-8816-47c0ee51164b}, !- Name
  {3c89729a-1d72-47d2-bc64-c003d66f5439}, !- Source Object
  11,                                     !- Outlet Port
  {418f215b-3c8b-448b-90d8-9b152ad17e20}, !- Target Object
  2;                                      !- Inlet Port

OS:PortList,
  {ae364561-9c9e-4ebd-9e28-4cf42255b0a8}, !- Handle
  {94807292-9627-40da-b0f1-d88a35a2214b}, !- Name
  {3c89729a-1d72-47d2-bc64-c003d66f5439}; !- HVAC Component

OS:PortList,
  {8aa7748a-1904-427a-bdd3-d4519fcb823d}, !- Handle
  {f642ad5a-3867-4141-ab3f-ddc4a7446018}, !- Name
  {3c89729a-1d72-47d2-bc64-c003d66f5439}; !- HVAC Component

OS:PortList,
  {787841ae-80f7-4812-aba7-aace4bb2e1fa}, !- Handle
  {a69ff4fc-b7e9-4a13-8359-dce695034d53}, !- Name
  {3c89729a-1d72-47d2-bc64-c003d66f5439}; !- HVAC Component

OS:Sizing:Zone,
  {6e7f4b1d-2f3d-4b09-b4ca-14e4b03af216}, !- Handle
  {3c89729a-1d72-47d2-bc64-c003d66f5439}, !- Zone or ZoneList Name
  SupplyAirTemperature,                   !- Zone Cooling Design Supply Air Temperature Input Method
  14,                                     !- Zone Cooling Design Supply Air Temperature {C}
  11.11,                                  !- Zone Cooling Design Supply Air Temperature Difference {deltaC}
  SupplyAirTemperature,                   !- Zone Heating Design Supply Air Temperature Input Method
  40,                                     !- Zone Heating Design Supply Air Temperature {C}
  11.11,                                  !- Zone Heating Design Supply Air Temperature Difference {deltaC}
  0.0085,                                 !- Zone Cooling Design Supply Air Humidity Ratio {kg-H2O/kg-air}
  0.008,                                  !- Zone Heating Design Supply Air Humidity Ratio {kg-H2O/kg-air}
  ,                                       !- Zone Heating Sizing Factor
  ,                                       !- Zone Cooling Sizing Factor
  DesignDay,                              !- Cooling Design Air Flow Method
  ,                                       !- Cooling Design Air Flow Rate {m3/s}
  ,                                       !- Cooling Minimum Air Flow per Zone Floor Area {m3/s-m2}
  ,                                       !- Cooling Minimum Air Flow {m3/s}
  ,                                       !- Cooling Minimum Air Flow Fraction
  DesignDay,                              !- Heating Design Air Flow Method
  ,                                       !- Heating Design Air Flow Rate {m3/s}
  ,                                       !- Heating Maximum Air Flow per Zone Floor Area {m3/s-m2}
  ,                                       !- Heating Maximum Air Flow {m3/s}
  ,                                       !- Heating Maximum Air Flow Fraction
  ,                                       !- Design Zone Air Distribution Effectiveness in Cooling Mode
  ,                                       !- Design Zone Air Distribution Effectiveness in Heating Mode
  No,                                     !- Account for Dedicated Outdoor Air System
  NeutralSupplyAir,                       !- Dedicated Outdoor Air System Control Strategy
  autosize,                               !- Dedicated Outdoor Air Low Setpoint Temperature for Design {C}
  autosize;                               !- Dedicated Outdoor Air High Setpoint Temperature for Design {C}

OS:ZoneHVAC:EquipmentList,
  {d17211c8-e755-423e-83c0-05593d23afef}, !- Handle
  Zone HVAC Equipment List 2,             !- Name
  {3c89729a-1d72-47d2-bc64-c003d66f5439}, !- Thermal Zone
  ,                                       !- Load Distribution Scheme
  {80a1f268-737a-40fb-8531-5bdbbd351fcd}, !- Zone Equipment 1
  1,                                      !- Zone Equipment Cooling Sequence 1
  1,                                      !- Zone Equipment Heating or No-Load Sequence 1
  ,                                       !- Zone Equipment Sequential Cooling Fraction Schedule Name 1
  ;                                       !- Zone Equipment Sequential Heating Fraction Schedule Name 1

OS:Space,
  {cc253caa-61ed-4cc6-a080-cd87d7f5bd4d}, !- Handle
  living space|unit 2|story 1,            !- Name
  {3d90ed87-d68b-43c6-8e90-4e1e6b7bd54c}, !- Space Type Name
  ,                                       !- Default Construction Set Name
  ,                                       !- Default Schedule Set Name
  -0,                                     !- Direction of Relative North {deg}
  0,                                      !- X Origin {m}
  0,                                      !- Y Origin {m}
  0,                                      !- Z Origin {m}
  ,                                       !- Building Story Name
  {3c89729a-1d72-47d2-bc64-c003d66f5439}, !- Thermal Zone Name
  ,                                       !- Part of Total Floor Area
  ,                                       !- Design Specification Outdoor Air Object Name
  {a8dba6b8-6bab-4f48-a1b1-9b222c3fa46a}; !- Building Unit Name

OS:Surface,
  {88ab1315-8615-4f1d-b6bd-28c709f7e9ab}, !- Handle
  Surface 12,                             !- Name
  Wall,                                   !- Surface Type
  ,                                       !- Construction Name
  {cc253caa-61ed-4cc6-a080-cd87d7f5bd4d}, !- Space Name
  Outdoors,                               !- Outside Boundary Condition
  ,                                       !- Outside Boundary Condition Object
  SunExposed,                             !- Sun Exposure
  WindExposed,                            !- Wind Exposure
  ,                                       !- View Factor to Ground
  ,                                       !- Number of Vertices
  6.46578440716979, -12.9315688143396, 2.4384, !- X,Y,Z Vertex 1 {m}
  6.46578440716979, -12.9315688143396, 0, !- X,Y,Z Vertex 2 {m}
  12.9315688143396, -12.9315688143396, 0, !- X,Y,Z Vertex 3 {m}
  12.9315688143396, -12.9315688143396, 2.4384; !- X,Y,Z Vertex 4 {m}

OS:Surface,
  {2c337a40-8b73-46bd-837c-344df8f6f0f8}, !- Handle
  Surface 13,                             !- Name
  Wall,                                   !- Surface Type
  ,                                       !- Construction Name
  {cc253caa-61ed-4cc6-a080-cd87d7f5bd4d}, !- Space Name
  Surface,                                !- Outside Boundary Condition
  {4a5030c4-1f35-4393-9609-715754a4dac9}, !- Outside Boundary Condition Object
  NoSun,                                  !- Sun Exposure
  NoWind,                                 !- Wind Exposure
  ,                                       !- View Factor to Ground
  ,                                       !- Number of Vertices
  6.46578440716979, 0, 2.4384,            !- X,Y,Z Vertex 1 {m}
  6.46578440716979, 0, 0,                 !- X,Y,Z Vertex 2 {m}
  6.46578440716979, -12.9315688143396, 0, !- X,Y,Z Vertex 3 {m}
  6.46578440716979, -12.9315688143396, 2.4384; !- X,Y,Z Vertex 4 {m}

OS:Surface,
  {47e18f07-d76b-40b1-82aa-0a0cf299f441}, !- Handle
  Surface 14,                             !- Name
  Floor,                                  !- Surface Type
  ,                                       !- Construction Name
  {cc253caa-61ed-4cc6-a080-cd87d7f5bd4d}, !- Space Name
  Foundation,                             !- Outside Boundary Condition
  ,                                       !- Outside Boundary Condition Object
  NoSun,                                  !- Sun Exposure
  NoWind,                                 !- Wind Exposure
  ,                                       !- View Factor to Ground
  ,                                       !- Number of Vertices
  6.46578440716979, -12.9315688143396, 0, !- X,Y,Z Vertex 1 {m}
  6.46578440716979, 0, 0,                 !- X,Y,Z Vertex 2 {m}
  12.9315688143396, 0, 0,                 !- X,Y,Z Vertex 3 {m}
  12.9315688143396, -12.9315688143396, 0; !- X,Y,Z Vertex 4 {m}

OS:Surface,
  {b3a2261a-59f1-407f-a199-89630365ff57}, !- Handle
  Surface 15,                             !- Name
  Wall,                                   !- Surface Type
  ,                                       !- Construction Name
  {cc253caa-61ed-4cc6-a080-cd87d7f5bd4d}, !- Space Name
  Outdoors,                               !- Outside Boundary Condition
  ,                                       !- Outside Boundary Condition Object
  SunExposed,                             !- Sun Exposure
  WindExposed,                            !- Wind Exposure
  ,                                       !- View Factor to Ground
  ,                                       !- Number of Vertices
  12.9315688143396, 0, 2.4384,            !- X,Y,Z Vertex 1 {m}
  12.9315688143396, 0, 0,                 !- X,Y,Z Vertex 2 {m}
  6.46578440716979, 0, 0,                 !- X,Y,Z Vertex 3 {m}
  6.46578440716979, 0, 2.4384;            !- X,Y,Z Vertex 4 {m}

OS:Surface,
  {3641c080-b3e0-40b8-95f3-b88236324d4e}, !- Handle
  Surface 16,                             !- Name
  Wall,                                   !- Surface Type
  ,                                       !- Construction Name
  {cc253caa-61ed-4cc6-a080-cd87d7f5bd4d}, !- Space Name
  Surface,                                !- Outside Boundary Condition
  {61da743a-7717-4bca-b59b-ebbbfd4b6a54}, !- Outside Boundary Condition Object
  NoSun,                                  !- Sun Exposure
  NoWind,                                 !- Wind Exposure
  ,                                       !- View Factor to Ground
  ,                                       !- Number of Vertices
  12.9315688143396, -12.9315688143396, 2.4384, !- X,Y,Z Vertex 1 {m}
  12.9315688143396, -12.9315688143396, 0, !- X,Y,Z Vertex 2 {m}
  12.9315688143396, 0, 0,                 !- X,Y,Z Vertex 3 {m}
  12.9315688143396, 0, 2.4384;            !- X,Y,Z Vertex 4 {m}

OS:Surface,
  {d233dec0-d296-405a-848e-81b671945b6c}, !- Handle
  Surface 17,                             !- Name
  RoofCeiling,                            !- Surface Type
  ,                                       !- Construction Name
  {cc253caa-61ed-4cc6-a080-cd87d7f5bd4d}, !- Space Name
  Surface,                                !- Outside Boundary Condition
  {6d6b8c1e-a3f1-4c15-8440-44d8bce4fef8}, !- Outside Boundary Condition Object
  NoSun,                                  !- Sun Exposure
  NoWind,                                 !- Wind Exposure
  ,                                       !- View Factor to Ground
  ,                                       !- Number of Vertices
  12.9315688143396, -12.9315688143396, 2.4384, !- X,Y,Z Vertex 1 {m}
  12.9315688143396, 0, 2.4384,            !- X,Y,Z Vertex 2 {m}
  6.46578440716979, 0, 2.4384,            !- X,Y,Z Vertex 3 {m}
  6.46578440716979, -12.9315688143396, 2.4384; !- X,Y,Z Vertex 4 {m}

OS:ThermalZone,
  {f967f77c-cc53-4d19-9c1d-b42612708a40}, !- Handle
  living zone|unit 3,                     !- Name
  ,                                       !- Multiplier
  ,                                       !- Ceiling Height {m}
  ,                                       !- Volume {m3}
  ,                                       !- Floor Area {m2}
  ,                                       !- Zone Inside Convection Algorithm
  ,                                       !- Zone Outside Convection Algorithm
  ,                                       !- Zone Conditioning Equipment List Name
  {d6e2649e-5e6b-4541-a1b5-eb5e47b76071}, !- Zone Air Inlet Port List
  {2872c6a9-b994-4272-bf74-b7e2849f19b5}, !- Zone Air Exhaust Port List
  {f19b87bd-2f83-47e0-9604-19432fea7215}, !- Zone Air Node Name
  {b8537120-599c-4532-935a-94f5251bfa55}, !- Zone Return Air Port List
  ,                                       !- Primary Daylighting Control Name
  ,                                       !- Fraction of Zone Controlled by Primary Daylighting Control
  ,                                       !- Secondary Daylighting Control Name
  ,                                       !- Fraction of Zone Controlled by Secondary Daylighting Control
  ,                                       !- Illuminance Map Name
  ,                                       !- Group Rendering Name
  ,                                       !- Thermostat Name
  No;                                     !- Use Ideal Air Loads

OS:Node,
  {cfb87e63-5170-42da-b3c2-2644a68812c3}, !- Handle
  Node 3,                                 !- Name
  {f19b87bd-2f83-47e0-9604-19432fea7215}, !- Inlet Port
  ;                                       !- Outlet Port

OS:Connection,