!- NOTE: Auto-generated from /test/osw_files/SFA_4units_1story_SL_UA_3Beds_2Baths_Denver_Central_System_Fan_Coil_NoSetpoints.osw

OS:Version,
  {17262d87-cfa0-4a8e-bd5f-f76aa215e4e9}, !- Handle
  2.9.0;                                  !- Version Identifier

OS:SimulationControl,
  {b9f20db8-c92e-4ab8-a6f7-dabcfaa673e1}, !- Handle
  ,                                       !- Do Zone Sizing Calculation
  ,                                       !- Do System Sizing Calculation
  ,                                       !- Do Plant Sizing Calculation
  Yes;                                    !- Run Simulation for Sizing Periods

OS:Timestep,
  {04baf0d3-e2ab-42af-8c0e-40b56c9a251a}, !- Handle
  6;                                      !- Number of Timesteps per Hour

OS:ShadowCalculation,
  {aa339e51-52e6-4905-bd0b-42aef9b67813}, !- Handle
  20,                                     !- Calculation Frequency
  200;                                    !- Maximum Figures in Shadow Overlap Calculations

OS:SurfaceConvectionAlgorithm:Outside,
  {a07877ca-01eb-49e1-8349-78ffe18db3d1}, !- Handle
  DOE-2;                                  !- Algorithm

OS:SurfaceConvectionAlgorithm:Inside,
  {f59cc647-443f-41df-903e-915956de9e7d}, !- Handle
  TARP;                                   !- Algorithm

OS:ZoneCapacitanceMultiplier:ResearchSpecial,
  {377caed7-dca6-468a-9104-b521bf3bd97f}, !- Handle
  ,                                       !- Temperature Capacity Multiplier
  15,                                     !- Humidity Capacity Multiplier
  ;                                       !- Carbon Dioxide Capacity Multiplier

OS:RunPeriod,
  {694ee417-45ac-4056-bef8-b0dc12171326}, !- Handle
  Run Period 1,                           !- Name
  1,                                      !- Begin Month
  1,                                      !- Begin Day of Month
  12,                                     !- End Month
  31,                                     !- End Day of Month
  ,                                       !- Use Weather File Holidays and Special Days
  ,                                       !- Use Weather File Daylight Saving Period
  ,                                       !- Apply Weekend Holiday Rule
  ,                                       !- Use Weather File Rain Indicators
  ,                                       !- Use Weather File Snow Indicators
  ;                                       !- Number of Times Runperiod to be Repeated

OS:YearDescription,
  {ff86d9f0-6815-434d-ad25-3c551faa449b}, !- Handle
  2007,                                   !- Calendar Year
  ,                                       !- Day of Week for Start Day
  ;                                       !- Is Leap Year

OS:ThermalZone,
  {d4f3e9a9-41b3-4add-94e6-6a15c257b4c9}, !- Handle
  living zone,                            !- Name
  ,                                       !- Multiplier
  ,                                       !- Ceiling Height {m}
  ,                                       !- Volume {m3}
  ,                                       !- Floor Area {m2}
  ,                                       !- Zone Inside Convection Algorithm
  ,                                       !- Zone Outside Convection Algorithm
  ,                                       !- Zone Conditioning Equipment List Name
  {2d1343a1-ff2a-47e7-b7ea-599dff3936f5}, !- Zone Air Inlet Port List
  {2b8db596-a843-4891-8511-f5eb1c2e96e2}, !- Zone Air Exhaust Port List
  {efc40c7e-86db-49e6-853c-dae81f8edc3b}, !- Zone Air Node Name
  {e8888b4b-34dc-4a39-b443-be350eb4bfa9}, !- Zone Return Air Port List
  ,                                       !- Primary Daylighting Control Name
  ,                                       !- Fraction of Zone Controlled by Primary Daylighting Control
  ,                                       !- Secondary Daylighting Control Name
  ,                                       !- Fraction of Zone Controlled by Secondary Daylighting Control
  ,                                       !- Illuminance Map Name
  ,                                       !- Group Rendering Name
  ,                                       !- Thermostat Name
  No;                                     !- Use Ideal Air Loads

OS:Node,
  {15f9d3a6-9f0c-4c2d-aa8e-d2acd852b2f9}, !- Handle
  Node 1,                                 !- Name
  {efc40c7e-86db-49e6-853c-dae81f8edc3b}, !- Inlet Port
  ;                                       !- Outlet Port

OS:Connection,
  {efc40c7e-86db-49e6-853c-dae81f8edc3b}, !- Handle
  {ea0f3e08-79c2-4c3a-89ad-6e022d1b7c25}, !- Name
  {d4f3e9a9-41b3-4add-94e6-6a15c257b4c9}, !- Source Object
  11,                                     !- Outlet Port
  {15f9d3a6-9f0c-4c2d-aa8e-d2acd852b2f9}, !- Target Object
  2;                                      !- Inlet Port

OS:PortList,
  {2d1343a1-ff2a-47e7-b7ea-599dff3936f5}, !- Handle
  {9afa1fa8-9a18-4327-ac0f-0f03210a79a5}, !- Name
  {d4f3e9a9-41b3-4add-94e6-6a15c257b4c9}, !- HVAC Component
  {86b74993-3359-4eb4-990a-fd53c5608c9b}; !- Port 1

OS:PortList,
  {2b8db596-a843-4891-8511-f5eb1c2e96e2}, !- Handle
  {3ad86eca-c508-42d3-bde1-f6ff234cb3c4}, !- Name
  {d4f3e9a9-41b3-4add-94e6-6a15c257b4c9}, !- HVAC Component
  {b42a58ff-063c-4bbd-b332-58b1f178b3e8}; !- Port 1

OS:PortList,
  {e8888b4b-34dc-4a39-b443-be350eb4bfa9}, !- Handle
  {189cf190-0941-4795-8596-f71064cee2ee}, !- Name
  {d4f3e9a9-41b3-4add-94e6-6a15c257b4c9}; !- HVAC Component

OS:Sizing:Zone,
  {5ffe570c-963b-402f-9336-d4e1be4d0346}, !- Handle
  {d4f3e9a9-41b3-4add-94e6-6a15c257b4c9}, !- Zone or ZoneList Name
  SupplyAirTemperature,                   !- Zone Cooling Design Supply Air Temperature Input Method
  12.7777777777778,                       !- Zone Cooling Design Supply Air Temperature {C}
  11.11,                                  !- Zone Cooling Design Supply Air Temperature Difference {deltaC}
  SupplyAirTemperature,                   !- Zone Heating Design Supply Air Temperature Input Method
  40.0000000000001,                       !- Zone Heating Design Supply Air Temperature {C}
  11.11,                                  !- Zone Heating Design Supply Air Temperature Difference {deltaC}
  0.0085,                                 !- Zone Cooling Design Supply Air Humidity Ratio {kg-H2O/kg-air}
  0.008,                                  !- Zone Heating Design Supply Air Humidity Ratio {kg-H2O/kg-air}
  ,                                       !- Zone Heating Sizing Factor
  ,                                       !- Zone Cooling Sizing Factor
  DesignDay,                              !- Cooling Design Air Flow Method
  ,                                       !- Cooling Design Air Flow Rate {m3/s}
  ,                                       !- Cooling Minimum Air Flow per Zone Floor Area {m3/s-m2}
  ,                                       !- Cooling Minimum Air Flow {m3/s}
  ,                                       !- Cooling Minimum Air Flow Fraction
  DesignDay,                              !- Heating Design Air Flow Method
  ,                                       !- Heating Design Air Flow Rate {m3/s}
  ,                                       !- Heating Maximum Air Flow per Zone Floor Area {m3/s-m2}
  ,                                       !- Heating Maximum Air Flow {m3/s}
  ,                                       !- Heating Maximum Air Flow Fraction
  ,                                       !- Design Zone Air Distribution Effectiveness in Cooling Mode
  ,                                       !- Design Zone Air Distribution Effectiveness in Heating Mode
  No,                                     !- Account for Dedicated Outdoor Air System
  NeutralSupplyAir,                       !- Dedicated Outdoor Air System Control Strategy
  autosize,                               !- Dedicated Outdoor Air Low Setpoint Temperature for Design {C}
  autosize;                               !- Dedicated Outdoor Air High Setpoint Temperature for Design {C}

OS:ZoneHVAC:EquipmentList,
  {19159732-6716-4fb7-bae1-edcafaec00d7}, !- Handle
  Zone HVAC Equipment List 1,             !- Name
  {d4f3e9a9-41b3-4add-94e6-6a15c257b4c9}, !- Thermal Zone
  ,                                       !- Load Distribution Scheme
  {dd8a453e-88ca-4e36-83f3-ba3bb516fd1d}, !- Zone Equipment 1
  1,                                      !- Zone Equipment Cooling Sequence 1
  1,                                      !- Zone Equipment Heating or No-Load Sequence 1
  ,                                       !- Zone Equipment Sequential Cooling Fraction Schedule Name 1
  ;                                       !- Zone Equipment Sequential Heating Fraction Schedule Name 1

OS:Space,
  {11e7ce3f-d016-47bc-914a-aa12f05fae90}, !- Handle
  living space,                           !- Name
  {bedff285-8df6-4f7c-9c03-d2d9e31b37eb}, !- Space Type Name
  ,                                       !- Default Construction Set Name
  ,                                       !- Default Schedule Set Name
  ,                                       !- Direction of Relative North {deg}
  ,                                       !- X Origin {m}
  ,                                       !- Y Origin {m}
  ,                                       !- Z Origin {m}
  ,                                       !- Building Story Name
  {d4f3e9a9-41b3-4add-94e6-6a15c257b4c9}, !- Thermal Zone Name
  ,                                       !- Part of Total Floor Area
  ,                                       !- Design Specification Outdoor Air Object Name
  {d11458b3-38b9-4dbd-9592-f3c3ec03dcf6}; !- Building Unit Name

OS:Surface,
  {731eefd5-3363-462a-94b7-5aba5dce576a}, !- Handle
  Surface 1,                              !- Name
  Floor,                                  !- Surface Type
  ,                                       !- Construction Name
  {11e7ce3f-d016-47bc-914a-aa12f05fae90}, !- Space Name
  Foundation,                             !- Outside Boundary Condition
  ,                                       !- Outside Boundary Condition Object
  NoSun,                                  !- Sun Exposure
  NoWind,                                 !- Wind Exposure
  ,                                       !- View Factor to Ground
  ,                                       !- Number of Vertices
  0, -12.9315688143396, 0,                !- X,Y,Z Vertex 1 {m}
  0, 0, 0,                                !- X,Y,Z Vertex 2 {m}
  6.46578440716979, 0, 0,                 !- X,Y,Z Vertex 3 {m}
  6.46578440716979, -12.9315688143396, 0; !- X,Y,Z Vertex 4 {m}

OS:Surface,
  {f0d8ffa6-b968-4d2b-90ab-d95048e76ccc}, !- Handle
  Surface 2,                              !- Name
  Wall,                                   !- Surface Type
  ,                                       !- Construction Name
  {11e7ce3f-d016-47bc-914a-aa12f05fae90}, !- Space Name
  Outdoors,                               !- Outside Boundary Condition
  ,                                       !- Outside Boundary Condition Object
  SunExposed,                             !- Sun Exposure
  WindExposed,                            !- Wind Exposure
  ,                                       !- View Factor to Ground
  ,                                       !- Number of Vertices
  0, 0, 2.4384,                           !- X,Y,Z Vertex 1 {m}
  0, 0, 0,                                !- X,Y,Z Vertex 2 {m}
  0, -12.9315688143396, 0,                !- X,Y,Z Vertex 3 {m}
  0, -12.9315688143396, 2.4384;           !- X,Y,Z Vertex 4 {m}

OS:Surface,
  {13030abb-4f5e-407d-9b75-6c44975ce0ee}, !- Handle
  Surface 3,                              !- Name
  Wall,                                   !- Surface Type
  ,                                       !- Construction Name
  {11e7ce3f-d016-47bc-914a-aa12f05fae90}, !- Space Name
  Outdoors,                               !- Outside Boundary Condition
  ,                                       !- Outside Boundary Condition Object
  SunExposed,                             !- Sun Exposure
  WindExposed,                            !- Wind Exposure
  ,                                       !- View Factor to Ground
  ,                                       !- Number of Vertices
  6.46578440716979, 0, 2.4384,            !- X,Y,Z Vertex 1 {m}
  6.46578440716979, 0, 0,                 !- X,Y,Z Vertex 2 {m}
  0, 0, 0,                                !- X,Y,Z Vertex 3 {m}
  0, 0, 2.4384;                           !- X,Y,Z Vertex 4 {m}

OS:Surface,
  {34cd2029-0f12-458b-a7a0-f0fc4ab80425}, !- Handle
  Surface 4,                              !- Name
  Wall,                                   !- Surface Type
  ,                                       !- Construction Name
  {11e7ce3f-d016-47bc-914a-aa12f05fae90}, !- Space Name
  Adiabatic,                              !- Outside Boundary Condition
  ,                                       !- Outside Boundary Condition Object
  NoSun,                                  !- Sun Exposure
  NoWind,                                 !- Wind Exposure
  ,                                       !- View Factor to Ground
  ,                                       !- Number of Vertices
  6.46578440716979, -12.9315688143396, 2.4384, !- X,Y,Z Vertex 1 {m}
  6.46578440716979, -12.9315688143396, 0, !- X,Y,Z Vertex 2 {m}
  6.46578440716979, 0, 0,                 !- X,Y,Z Vertex 3 {m}
  6.46578440716979, 0, 2.4384;            !- X,Y,Z Vertex 4 {m}

OS:Surface,
  {45f59d8e-fb68-402f-9640-d41066c3735e}, !- Handle
  Surface 5,                              !- Name
  Wall,                                   !- Surface Type
  ,                                       !- Construction Name
  {11e7ce3f-d016-47bc-914a-aa12f05fae90}, !- Space Name
  Outdoors,                               !- Outside Boundary Condition
  ,                                       !- Outside Boundary Condition Object
  SunExposed,                             !- Sun Exposure
  WindExposed,                            !- Wind Exposure
  ,                                       !- View Factor to Ground
  ,                                       !- Number of Vertices
  0, -12.9315688143396, 2.4384,           !- X,Y,Z Vertex 1 {m}
  0, -12.9315688143396, 0,                !- X,Y,Z Vertex 2 {m}
  6.46578440716979, -12.9315688143396, 0, !- X,Y,Z Vertex 3 {m}
  6.46578440716979, -12.9315688143396, 2.4384; !- X,Y,Z Vertex 4 {m}

OS:Surface,
  {1e7f2802-5e7c-456f-bf84-feb1435784b3}, !- Handle
  Surface 6,                              !- Name
  RoofCeiling,                            !- Surface Type
  ,                                       !- Construction Name
  {11e7ce3f-d016-47bc-914a-aa12f05fae90}, !- Space Name
  Surface,                                !- Outside Boundary Condition
  {c73d5f4b-3725-4064-b56a-d8942eff7303}, !- Outside Boundary Condition Object
  NoSun,                                  !- Sun Exposure
  NoWind,                                 !- Wind Exposure
  ,                                       !- View Factor to Ground
  ,                                       !- Number of Vertices
  6.46578440716979, -12.9315688143396, 2.4384, !- X,Y,Z Vertex 1 {m}
  6.46578440716979, 0, 2.4384,            !- X,Y,Z Vertex 2 {m}
  0, 0, 2.4384,                           !- X,Y,Z Vertex 3 {m}
  0, -12.9315688143396, 2.4384;           !- X,Y,Z Vertex 4 {m}

OS:SpaceType,
  {bedff285-8df6-4f7c-9c03-d2d9e31b37eb}, !- Handle
  Space Type 1,                           !- Name
  ,                                       !- Default Construction Set Name
  ,                                       !- Default Schedule Set Name
  ,                                       !- Group Rendering Name
  ,                                       !- Design Specification Outdoor Air Object Name
  ,                                       !- Standards Template
  ,                                       !- Standards Building Type
  living;                                 !- Standards Space Type

OS:Surface,
  {c73d5f4b-3725-4064-b56a-d8942eff7303}, !- Handle
  Surface 7,                              !- Name
  Floor,                                  !- Surface Type
  ,                                       !- Construction Name
  {4bf89afe-13eb-4bc9-9803-f195cd0b74ba}, !- Space Name
  Surface,                                !- Outside Boundary Condition
  {1e7f2802-5e7c-456f-bf84-feb1435784b3}, !- Outside Boundary Condition Object
  NoSun,                                  !- Sun Exposure
  NoWind,                                 !- Wind Exposure
  ,                                       !- View Factor to Ground
  ,                                       !- Number of Vertices
  0, -12.9315688143396, 2.4384,           !- X,Y,Z Vertex 1 {m}
  0, 0, 2.4384,                           !- X,Y,Z Vertex 2 {m}
  6.46578440716979, 0, 2.4384,            !- X,Y,Z Vertex 3 {m}
  6.46578440716979, -12.9315688143396, 2.4384; !- X,Y,Z Vertex 4 {m}

OS:Surface,
  {acfc75f5-576e-4ef7-8953-78cc04c59f70}, !- Handle
  Surface 8,                              !- Name
  RoofCeiling,                            !- Surface Type
  ,                                       !- Construction Name
  {4bf89afe-13eb-4bc9-9803-f195cd0b74ba}, !- Space Name
  Outdoors,                               !- Outside Boundary Condition
  ,                                       !- Outside Boundary Condition Object
  SunExposed,                             !- Sun Exposure
  WindExposed,                            !- Wind Exposure
  ,                                       !- View Factor to Ground
  ,                                       !- Number of Vertices
  0, -6.46578440716979, 5.6712922035849,  !- X,Y,Z Vertex 1 {m}
  6.46578440716979, -6.46578440716979, 5.6712922035849, !- X,Y,Z Vertex 2 {m}
  6.46578440716979, 0, 2.4384,            !- X,Y,Z Vertex 3 {m}
  0, 0, 2.4384;                           !- X,Y,Z Vertex 4 {m}

OS:Surface,
  {1d617ae8-5e10-4697-b6cc-69dd4adba3e8}, !- Handle
  Surface 9,                              !- Name
  RoofCeiling,                            !- Surface Type
  ,                                       !- Construction Name
  {4bf89afe-13eb-4bc9-9803-f195cd0b74ba}, !- Space Name
  Outdoors,                               !- Outside Boundary Condition
  ,                                       !- Outside Boundary Condition Object
  SunExposed,                             !- Sun Exposure
  WindExposed,                            !- Wind Exposure
  ,                                       !- View Factor to Ground
  ,                                       !- Number of Vertices
  6.46578440716979, -6.46578440716979, 5.6712922035849, !- X,Y,Z Vertex 1 {m}
  0, -6.46578440716979, 5.6712922035849,  !- X,Y,Z Vertex 2 {m}
  0, -12.9315688143396, 2.4384,           !- X,Y,Z Vertex 3 {m}
  6.46578440716979, -12.9315688143396, 2.4384; !- X,Y,Z Vertex 4 {m}

OS:Surface,
  {93f68489-4b68-4bf1-a78a-64738eb834a5}, !- Handle
  Surface 10,                             !- Name
  Wall,                                   !- Surface Type
  ,                                       !- Construction Name
  {4bf89afe-13eb-4bc9-9803-f195cd0b74ba}, !- Space Name
  Outdoors,                               !- Outside Boundary Condition
  ,                                       !- Outside Boundary Condition Object
  SunExposed,                             !- Sun Exposure
  WindExposed,                            !- Wind Exposure
  ,                                       !- View Factor to Ground
  ,                                       !- Number of Vertices
  0, -6.46578440716979, 5.6712922035849,  !- X,Y,Z Vertex 1 {m}
  0, 0, 2.4384,                           !- X,Y,Z Vertex 2 {m}
  0, -12.9315688143396, 2.4384;           !- X,Y,Z Vertex 3 {m}

OS:Surface,
  {03cbb7e9-9db0-428c-8519-f184a2745f2f}, !- Handle
  Surface 11,                             !- Name
  Wall,                                   !- Surface Type
  ,                                       !- Construction Name
  {4bf89afe-13eb-4bc9-9803-f195cd0b74ba}, !- Space Name
  Adiabatic,                              !- Outside Boundary Condition
  ,                                       !- Outside Boundary Condition Object
  NoSun,                                  !- Sun Exposure
  NoWind,                                 !- Wind Exposure
  ,                                       !- View Factor to Ground
  ,                                       !- Number of Vertices
  6.46578440716979, -6.46578440716979, 5.6712922035849, !- X,Y,Z Vertex 1 {m}
  6.46578440716979, -12.9315688143396, 2.4384, !- X,Y,Z Vertex 2 {m}
  6.46578440716979, 0, 2.4384;            !- X,Y,Z Vertex 3 {m}

OS:Space,
  {4bf89afe-13eb-4bc9-9803-f195cd0b74ba}, !- Handle
  unfinished attic space,                 !- Name
  {5dcc6f7a-7341-4107-83c0-037eaabe7c50}, !- Space Type Name
  ,                                       !- Default Construction Set Name
  ,                                       !- Default Schedule Set Name
  ,                                       !- Direction of Relative North {deg}
  ,                                       !- X Origin {m}
  ,                                       !- Y Origin {m}
  ,                                       !- Z Origin {m}
  ,                                       !- Building Story Name
  {0e4f868e-4db1-47e1-b021-d1d1350c6f54}; !- Thermal Zone Name

OS:ThermalZone,
  {0e4f868e-4db1-47e1-b021-d1d1350c6f54}, !- Handle
  unfinished attic zone,                  !- Name
  ,                                       !- Multiplier
  ,                                       !- Ceiling Height {m}
  ,                                       !- Volume {m3}
  ,                                       !- Floor Area {m2}
  ,                                       !- Zone Inside Convection Algorithm
  ,                                       !- Zone Outside Convection Algorithm
  ,                                       !- Zone Conditioning Equipment List Name
  {9de0196c-ff84-4283-b000-343ec6721561}, !- Zone Air Inlet Port List
  {119639d4-0a2d-4c5d-b09d-44c9940ebb17}, !- Zone Air Exhaust Port List
  {189910a1-ed40-40bf-89d9-bd61ecce4677}, !- Zone Air Node Name
  {6b473553-7790-4949-9512-91f4755600d7}, !- Zone Return Air Port List
  ,                                       !- Primary Daylighting Control Name
  ,                                       !- Fraction of Zone Controlled by Primary Daylighting Control
  ,                                       !- Secondary Daylighting Control Name
  ,                                       !- Fraction of Zone Controlled by Secondary Daylighting Control
  ,                                       !- Illuminance Map Name
  ,                                       !- Group Rendering Name
  ,                                       !- Thermostat Name
  No;                                     !- Use Ideal Air Loads

OS:Node,
  {7fbc46f6-a733-47bd-8db9-937d0649080d}, !- Handle
  Node 2,                                 !- Name
  {189910a1-ed40-40bf-89d9-bd61ecce4677}, !- Inlet Port
  ;                                       !- Outlet Port

OS:Connection,
  {189910a1-ed40-40bf-89d9-bd61ecce4677}, !- Handle
  {24fa5ec4-8123-4de5-b119-aa002278f50f}, !- Name
  {0e4f868e-4db1-47e1-b021-d1d1350c6f54}, !- Source Object
  11,                                     !- Outlet Port
  {7fbc46f6-a733-47bd-8db9-937d0649080d}, !- Target Object
  2;                                      !- Inlet Port

OS:PortList,
  {9de0196c-ff84-4283-b000-343ec6721561}, !- Handle
  {d89bbee9-3e2c-4781-a9ad-732c9f9aed80}, !- Name
  {0e4f868e-4db1-47e1-b021-d1d1350c6f54}; !- HVAC Component

OS:PortList,
  {119639d4-0a2d-4c5d-b09d-44c9940ebb17}, !- Handle
  {b59178a0-d824-405d-a37d-eb03297460f9}, !- Name
  {0e4f868e-4db1-47e1-b021-d1d1350c6f54}; !- HVAC Component

OS:PortList,
  {6b473553-7790-4949-9512-91f4755600d7}, !- Handle
  {ac8c760d-1fd6-44ad-a0f7-fd58c93766b7}, !- Name
  {0e4f868e-4db1-47e1-b021-d1d1350c6f54}; !- HVAC Component

OS:Sizing:Zone,
  {0184167d-96c9-46ac-81e8-5ec49906fb6e}, !- Handle
  {0e4f868e-4db1-47e1-b021-d1d1350c6f54}, !- Zone or ZoneList Name
  SupplyAirTemperature,                   !- Zone Cooling Design Supply Air Temperature Input Method
  14,                                     !- Zone Cooling Design Supply Air Temperature {C}
  11.11,                                  !- Zone Cooling Design Supply Air Temperature Difference {deltaC}
  SupplyAirTemperature,                   !- Zone Heating Design Supply Air Temperature Input Method
  40,                                     !- Zone Heating Design Supply Air Temperature {C}
  11.11,                                  !- Zone Heating Design Supply Air Temperature Difference {deltaC}
  0.0085,                                 !- Zone Cooling Design Supply Air Humidity Ratio {kg-H2O/kg-air}
  0.008,                                  !- Zone Heating Design Supply Air Humidity Ratio {kg-H2O/kg-air}
  ,                                       !- Zone Heating Sizing Factor
  ,                                       !- Zone Cooling Sizing Factor
  DesignDay,                              !- Cooling Design Air Flow Method
  ,                                       !- Cooling Design Air Flow Rate {m3/s}
  ,                                       !- Cooling Minimum Air Flow per Zone Floor Area {m3/s-m2}
  ,                                       !- Cooling Minimum Air Flow {m3/s}
  ,                                       !- Cooling Minimum Air Flow Fraction
  DesignDay,                              !- Heating Design Air Flow Method
  ,                                       !- Heating Design Air Flow Rate {m3/s}
  ,                                       !- Heating Maximum Air Flow per Zone Floor Area {m3/s-m2}
  ,                                       !- Heating Maximum Air Flow {m3/s}
  ,                                       !- Heating Maximum Air Flow Fraction
  ,                                       !- Design Zone Air Distribution Effectiveness in Cooling Mode
  ,                                       !- Design Zone Air Distribution Effectiveness in Heating Mode
  No,                                     !- Account for Dedicated Outdoor Air System
  NeutralSupplyAir,                       !- Dedicated Outdoor Air System Control Strategy
  autosize,                               !- Dedicated Outdoor Air Low Setpoint Temperature for Design {C}
  autosize;                               !- Dedicated Outdoor Air High Setpoint Temperature for Design {C}

OS:ZoneHVAC:EquipmentList,
  {f35a8153-bbd7-4ff2-945d-b6c4db760716}, !- Handle
  Zone HVAC Equipment List 2,             !- Name
  {0e4f868e-4db1-47e1-b021-d1d1350c6f54}; !- Thermal Zone

OS:SpaceType,
  {5dcc6f7a-7341-4107-83c0-037eaabe7c50}, !- Handle
  Space Type 2,                           !- Name
  ,                                       !- Default Construction Set Name
  ,                                       !- Default Schedule Set Name
  ,                                       !- Group Rendering Name
  ,                                       !- Design Specification Outdoor Air Object Name
  ,                                       !- Standards Template
  ,                                       !- Standards Building Type
  unfinished attic;                       !- Standards Space Type

OS:BuildingUnit,
  {d11458b3-38b9-4dbd-9592-f3c3ec03dcf6}, !- Handle
  unit 1,                                 !- Name
  ,                                       !- Rendering Color
  Residential;                            !- Building Unit Type

OS:Building,
  {ce70133a-0219-48d6-9237-d7283be58399}, !- Handle
  Building 1,                             !- Name
  ,                                       !- Building Sector Type
  0,                                      !- North Axis {deg}
  ,                                       !- Nominal Floor to Floor Height {m}
  ,                                       !- Space Type Name
  ,                                       !- Default Construction Set Name
  ,                                       !- Default Schedule Set Name
  1,                                      !- Standards Number of Stories
  1,                                      !- Standards Number of Above Ground Stories
  ,                                       !- Standards Template
  singlefamilyattached,                   !- Standards Building Type
  4;                                      !- Standards Number of Living Units

OS:AdditionalProperties,
  {be74b13d-ee89-4d46-80f7-028a1754a351}, !- Handle
  {ce70133a-0219-48d6-9237-d7283be58399}, !- Object Name
  num_units,                              !- Feature Name 1
  Integer,                                !- Feature Data Type 1
  4,                                      !- Feature Value 1
  has_rear_units,                         !- Feature Name 2
  Boolean,                                !- Feature Data Type 2
  false,                                  !- Feature Value 2
  horz_location,                          !- Feature Name 3
  String,                                 !- Feature Data Type 3
  Left,                                   !- Feature Value 3
  num_floors,                             !- Feature Name 4
  Integer,                                !- Feature Data Type 4
  1,                                      !- Feature Value 4
  has_hvac_flue,                          !- Feature Name 5
  Boolean,                                !- Feature Data Type 5
  true;                                   !- Feature Value 5

OS:AdditionalProperties,
  {34730f28-827b-4ded-ad88-eda0c90184f4}, !- Handle
  {d11458b3-38b9-4dbd-9592-f3c3ec03dcf6}, !- Object Name
  NumberOfBedrooms,                       !- Feature Name 1
  Integer,                                !- Feature Data Type 1
  3,                                      !- Feature Value 1
  NumberOfBathrooms,                      !- Feature Name 2
  Double,                                 !- Feature Data Type 2
  2,                                      !- Feature Value 2
  NumberOfOccupants,                      !- Feature Name 3