!- NOTE: Auto-generated from /test/osw_files/SFA_4units_1story_SL_UA_3Beds_2Baths_Denver_Central_System_Fan_Coil_Cooling_Only.osw

OS:Version,
  {c6ab7f5f-8076-46da-ae27-92a53fc0b279}, !- Handle
  2.8.1;                                  !- Version Identifier

OS:SimulationControl,
  {9342014b-dcec-446f-b8c0-8cc9a930bae4}, !- Handle
  ,                                       !- Do Zone Sizing Calculation
  ,                                       !- Do System Sizing Calculation
  ,                                       !- Do Plant Sizing Calculation
  Yes;                                    !- Run Simulation for Sizing Periods

OS:Timestep,
  {d3d5c4f0-a397-4201-957f-83c9e51d5d49}, !- Handle
  6;                                      !- Number of Timesteps per Hour

OS:ShadowCalculation,
  {4f8fb74e-62af-4c36-ab68-8c51287ebb61}, !- Handle
  20,                                     !- Calculation Frequency
  200;                                    !- Maximum Figures in Shadow Overlap Calculations

OS:SurfaceConvectionAlgorithm:Outside,
  {1a764195-940b-4452-b39b-1a0a60706433}, !- Handle
  DOE-2;                                  !- Algorithm

OS:SurfaceConvectionAlgorithm:Inside,
  {db17457d-41fc-4100-8589-5ec67f668952}, !- Handle
  TARP;                                   !- Algorithm

OS:ZoneCapacitanceMultiplier:ResearchSpecial,
  {473e7398-9b67-4a98-84f2-04c1e2a0575c}, !- Handle
  ,                                       !- Temperature Capacity Multiplier
  15,                                     !- Humidity Capacity Multiplier
  ;                                       !- Carbon Dioxide Capacity Multiplier

OS:RunPeriod,
  {eda61fcd-82a5-4b40-97da-967d13602e05}, !- Handle
  Run Period 1,                           !- Name
  1,                                      !- Begin Month
  1,                                      !- Begin Day of Month
  12,                                     !- End Month
  31,                                     !- End Day of Month
  ,                                       !- Use Weather File Holidays and Special Days
  ,                                       !- Use Weather File Daylight Saving Period
  ,                                       !- Apply Weekend Holiday Rule
  ,                                       !- Use Weather File Rain Indicators
  ,                                       !- Use Weather File Snow Indicators
  ;                                       !- Number of Times Runperiod to be Repeated

OS:YearDescription,
  {1b6354a5-e4b2-4ed6-9a0e-bc3be9d8c5fa}, !- Handle
  2007,                                   !- Calendar Year
  ,                                       !- Day of Week for Start Day
  ;                                       !- Is Leap Year

OS:ThermalZone,
  {8ccba956-e9b9-4ede-ad9a-e2335c7692d6}, !- Handle
  living zone,                            !- Name
  ,                                       !- Multiplier
  ,                                       !- Ceiling Height {m}
  ,                                       !- Volume {m3}
  ,                                       !- Floor Area {m2}
  ,                                       !- Zone Inside Convection Algorithm
  ,                                       !- Zone Outside Convection Algorithm
  ,                                       !- Zone Conditioning Equipment List Name
  {0785b9df-927a-4fc4-b30f-82f4be0bf3e5}, !- Zone Air Inlet Port List
  {daa1474b-d3ff-4c7d-9b7c-3aa64ae96ca6}, !- Zone Air Exhaust Port List
  {835baa0b-0347-4899-8fbf-613fded3c6a8}, !- Zone Air Node Name
  {194eb2c2-6fbf-43f0-8271-e3de2afdbdc0}, !- Zone Return Air Port List
  ,                                       !- Primary Daylighting Control Name
  ,                                       !- Fraction of Zone Controlled by Primary Daylighting Control
  ,                                       !- Secondary Daylighting Control Name
  ,                                       !- Fraction of Zone Controlled by Secondary Daylighting Control
  ,                                       !- Illuminance Map Name
  ,                                       !- Group Rendering Name
  {496417a3-8945-423d-ba44-42f3e7d27e98}, !- Thermostat Name
  No;                                     !- Use Ideal Air Loads

OS:Node,
  {b067adff-401c-44e5-ba57-3fe9befdac7f}, !- Handle
  Node 1,                                 !- Name
  {835baa0b-0347-4899-8fbf-613fded3c6a8}, !- Inlet Port
  ;                                       !- Outlet Port

OS:Connection,
  {835baa0b-0347-4899-8fbf-613fded3c6a8}, !- Handle
  {20c73271-d2c9-4bbc-b180-c8bc23555989}, !- Name
  {8ccba956-e9b9-4ede-ad9a-e2335c7692d6}, !- Source Object
  11,                                     !- Outlet Port
  {b067adff-401c-44e5-ba57-3fe9befdac7f}, !- Target Object
  2;                                      !- Inlet Port

OS:PortList,
  {0785b9df-927a-4fc4-b30f-82f4be0bf3e5}, !- Handle
  {d922b4e6-62d2-47ec-8203-30a9ea75782f}, !- Name
  {8ccba956-e9b9-4ede-ad9a-e2335c7692d6}, !- HVAC Component
  {cd2cf7aa-9049-4d8e-b649-bbe0a20f1442}; !- Port 1

OS:PortList,
  {daa1474b-d3ff-4c7d-9b7c-3aa64ae96ca6}, !- Handle
  {7e19d61d-9bdf-43fd-9234-ae584e137d4b}, !- Name
  {8ccba956-e9b9-4ede-ad9a-e2335c7692d6}, !- HVAC Component
  {835e5254-7cad-4141-b84a-201f2f6fee62}; !- Port 1

OS:PortList,
  {194eb2c2-6fbf-43f0-8271-e3de2afdbdc0}, !- Handle
  {a358d740-e8f1-4e74-9164-4b0afaa0f439}, !- Name
  {8ccba956-e9b9-4ede-ad9a-e2335c7692d6}; !- HVAC Component

OS:Sizing:Zone,
  {981d3946-222d-4aa3-a86b-b884f1282574}, !- Handle
  {8ccba956-e9b9-4ede-ad9a-e2335c7692d6}, !- Zone or ZoneList Name
  SupplyAirTemperature,                   !- Zone Cooling Design Supply Air Temperature Input Method
  12.7777777777778,                       !- Zone Cooling Design Supply Air Temperature {C}
  11.11,                                  !- Zone Cooling Design Supply Air Temperature Difference {deltaC}
  SupplyAirTemperature,                   !- Zone Heating Design Supply Air Temperature Input Method
  40.0000000000001,                       !- Zone Heating Design Supply Air Temperature {C}
  11.11,                                  !- Zone Heating Design Supply Air Temperature Difference {deltaC}
  0.0085,                                 !- Zone Cooling Design Supply Air Humidity Ratio {kg-H2O/kg-air}
  0.008,                                  !- Zone Heating Design Supply Air Humidity Ratio {kg-H2O/kg-air}
  ,                                       !- Zone Heating Sizing Factor
  ,                                       !- Zone Cooling Sizing Factor
  DesignDay,                              !- Cooling Design Air Flow Method
  ,                                       !- Cooling Design Air Flow Rate {m3/s}
  ,                                       !- Cooling Minimum Air Flow per Zone Floor Area {m3/s-m2}
  ,                                       !- Cooling Minimum Air Flow {m3/s}
  ,                                       !- Cooling Minimum Air Flow Fraction
  DesignDay,                              !- Heating Design Air Flow Method
  ,                                       !- Heating Design Air Flow Rate {m3/s}
  ,                                       !- Heating Maximum Air Flow per Zone Floor Area {m3/s-m2}
  ,                                       !- Heating Maximum Air Flow {m3/s}
  ,                                       !- Heating Maximum Air Flow Fraction
  ,                                       !- Design Zone Air Distribution Effectiveness in Cooling Mode
  ,                                       !- Design Zone Air Distribution Effectiveness in Heating Mode
  No,                                     !- Account for Dedicated Outdoor Air System
  NeutralSupplyAir,                       !- Dedicated Outdoor Air System Control Strategy
  autosize,                               !- Dedicated Outdoor Air Low Setpoint Temperature for Design {C}
  autosize;                               !- Dedicated Outdoor Air High Setpoint Temperature for Design {C}

OS:ZoneHVAC:EquipmentList,
  {2af6dd38-ed2d-4600-8b8c-b9496109d61a}, !- Handle
  Zone HVAC Equipment List 1,             !- Name
  {8ccba956-e9b9-4ede-ad9a-e2335c7692d6}, !- Thermal Zone
  ,                                       !- Load Distribution Scheme
  {625e152b-3a98-4e48-8e34-08e4c348b61d}, !- Zone Equipment 1
  1,                                      !- Zone Equipment Cooling Sequence 1
  1,                                      !- Zone Equipment Heating or No-Load Sequence 1
  ,                                       !- Zone Equipment Sequential Cooling Fraction 1
  ;                                       !- Zone Equipment Sequential Heating Fraction 1

OS:Space,
  {d4eff5f1-c0e5-4e78-b2c8-5deb2f998ef2}, !- Handle
  living space,                           !- Name
  {94c16d9b-3c18-48e2-bfdc-8788ccf29a15}, !- Space Type Name
  ,                                       !- Default Construction Set Name
  ,                                       !- Default Schedule Set Name
  ,                                       !- Direction of Relative North {deg}
  ,                                       !- X Origin {m}
  ,                                       !- Y Origin {m}
  ,                                       !- Z Origin {m}
  ,                                       !- Building Story Name
  {8ccba956-e9b9-4ede-ad9a-e2335c7692d6}, !- Thermal Zone Name
  ,                                       !- Part of Total Floor Area
  ,                                       !- Design Specification Outdoor Air Object Name
  {aa1d17ab-dc18-4d64-b02e-818cc180edeb}; !- Building Unit Name

OS:Surface,
  {02c96516-2f55-4f8b-9954-114c62665f66}, !- Handle
  Surface 1,                              !- Name
  Floor,                                  !- Surface Type
  ,                                       !- Construction Name
  {d4eff5f1-c0e5-4e78-b2c8-5deb2f998ef2}, !- Space Name
  Foundation,                             !- Outside Boundary Condition
  ,                                       !- Outside Boundary Condition Object
  NoSun,                                  !- Sun Exposure
  NoWind,                                 !- Wind Exposure
  ,                                       !- View Factor to Ground
  ,                                       !- Number of Vertices
  0, -12.9315688143396, 0,                !- X,Y,Z Vertex 1 {m}
  0, 0, 0,                                !- X,Y,Z Vertex 2 {m}
  6.46578440716979, 0, 0,                 !- X,Y,Z Vertex 3 {m}
  6.46578440716979, -12.9315688143396, 0; !- X,Y,Z Vertex 4 {m}

OS:Surface,
  {3e615fc4-95f4-42eb-a1f7-b8cfff02faef}, !- Handle
  Surface 2,                              !- Name
  Wall,                                   !- Surface Type
  ,                                       !- Construction Name
  {d4eff5f1-c0e5-4e78-b2c8-5deb2f998ef2}, !- Space Name
  Outdoors,                               !- Outside Boundary Condition
  ,                                       !- Outside Boundary Condition Object
  SunExposed,                             !- Sun Exposure
  WindExposed,                            !- Wind Exposure
  ,                                       !- View Factor to Ground
  ,                                       !- Number of Vertices
  0, 0, 2.4384,                           !- X,Y,Z Vertex 1 {m}
  0, 0, 0,                                !- X,Y,Z Vertex 2 {m}
  0, -12.9315688143396, 0,                !- X,Y,Z Vertex 3 {m}
  0, -12.9315688143396, 2.4384;           !- X,Y,Z Vertex 4 {m}

OS:Surface,
  {888b4790-68da-4a44-bae3-c7173a1062c2}, !- Handle
  Surface 3,                              !- Name
  Wall,                                   !- Surface Type
  ,                                       !- Construction Name
  {d4eff5f1-c0e5-4e78-b2c8-5deb2f998ef2}, !- Space Name
  Outdoors,                               !- Outside Boundary Condition
  ,                                       !- Outside Boundary Condition Object
  SunExposed,                             !- Sun Exposure
  WindExposed,                            !- Wind Exposure
  ,                                       !- View Factor to Ground
  ,                                       !- Number of Vertices
  6.46578440716979, 0, 2.4384,            !- X,Y,Z Vertex 1 {m}
  6.46578440716979, 0, 0,                 !- X,Y,Z Vertex 2 {m}
  0, 0, 0,                                !- X,Y,Z Vertex 3 {m}
  0, 0, 2.4384;                           !- X,Y,Z Vertex 4 {m}

OS:Surface,
  {ddf2f1e1-9b93-46a1-9fd7-540db9855fa6}, !- Handle
  Surface 4,                              !- Name
  Wall,                                   !- Surface Type
  ,                                       !- Construction Name
  {d4eff5f1-c0e5-4e78-b2c8-5deb2f998ef2}, !- Space Name
  Surface,                                !- Outside Boundary Condition
  {4b68c22d-e56a-4508-9aa6-518e55d99b54}, !- Outside Boundary Condition Object
  NoSun,                                  !- Sun Exposure
  NoWind,                                 !- Wind Exposure
  ,                                       !- View Factor to Ground
  ,                                       !- Number of Vertices
  6.46578440716979, -12.9315688143396, 2.4384, !- X,Y,Z Vertex 1 {m}
  6.46578440716979, -12.9315688143396, 0, !- X,Y,Z Vertex 2 {m}
  6.46578440716979, 0, 0,                 !- X,Y,Z Vertex 3 {m}
  6.46578440716979, 0, 2.4384;            !- X,Y,Z Vertex 4 {m}

OS:Surface,
  {167bf9f6-46f2-42c3-b031-6a21fe4c2362}, !- Handle
  Surface 5,                              !- Name
  Wall,                                   !- Surface Type
  ,                                       !- Construction Name
  {d4eff5f1-c0e5-4e78-b2c8-5deb2f998ef2}, !- Space Name
  Outdoors,                               !- Outside Boundary Condition
  ,                                       !- Outside Boundary Condition Object
  SunExposed,                             !- Sun Exposure
  WindExposed,                            !- Wind Exposure
  ,                                       !- View Factor to Ground
  ,                                       !- Number of Vertices
  0, -12.9315688143396, 2.4384,           !- X,Y,Z Vertex 1 {m}
  0, -12.9315688143396, 0,                !- X,Y,Z Vertex 2 {m}
  6.46578440716979, -12.9315688143396, 0, !- X,Y,Z Vertex 3 {m}
  6.46578440716979, -12.9315688143396, 2.4384; !- X,Y,Z Vertex 4 {m}

OS:Surface,
  {f7db8ed6-3d9e-47ca-b1cf-a025a0fa9f98}, !- Handle
  Surface 6,                              !- Name
  RoofCeiling,                            !- Surface Type
  ,                                       !- Construction Name
  {d4eff5f1-c0e5-4e78-b2c8-5deb2f998ef2}, !- Space Name
  Surface,                                !- Outside Boundary Condition
  {553a4eef-05cb-4932-bc42-f39d139a41cc}, !- Outside Boundary Condition Object
  NoSun,                                  !- Sun Exposure
  NoWind,                                 !- Wind Exposure
  ,                                       !- View Factor to Ground
  ,                                       !- Number of Vertices
  6.46578440716979, -12.9315688143396, 2.4384, !- X,Y,Z Vertex 1 {m}
  6.46578440716979, 0, 2.4384,            !- X,Y,Z Vertex 2 {m}
  0, 0, 2.4384,                           !- X,Y,Z Vertex 3 {m}
  0, -12.9315688143396, 2.4384;           !- X,Y,Z Vertex 4 {m}

OS:SpaceType,
  {94c16d9b-3c18-48e2-bfdc-8788ccf29a15}, !- Handle
  Space Type 1,                           !- Name
  ,                                       !- Default Construction Set Name
  ,                                       !- Default Schedule Set Name
  ,                                       !- Group Rendering Name
  ,                                       !- Design Specification Outdoor Air Object Name
  ,                                       !- Standards Template
  ,                                       !- Standards Building Type
  living;                                 !- Standards Space Type

OS:ThermalZone,
  {f12b5f58-2ed2-422d-837b-c351d101fc5a}, !- Handle
  living zone|unit 2,                     !- Name
  ,                                       !- Multiplier
  ,                                       !- Ceiling Height {m}
  ,                                       !- Volume {m3}
  ,                                       !- Floor Area {m2}
  ,                                       !- Zone Inside Convection Algorithm
  ,                                       !- Zone Outside Convection Algorithm
  ,                                       !- Zone Conditioning Equipment List Name
  {34e4d46c-1ae7-4fa0-baaa-f38a8a37774a}, !- Zone Air Inlet Port List
  {962fd4ae-19bb-4206-b84e-ce911eaefadd}, !- Zone Air Exhaust Port List
  {e46e4740-e52c-45aa-86fd-26107f0a2b62}, !- Zone Air Node Name
  {76748589-4aab-4167-a884-7b1f4fbd7e5f}, !- Zone Return Air Port List
  ,                                       !- Primary Daylighting Control Name
  ,                                       !- Fraction of Zone Controlled by Primary Daylighting Control
  ,                                       !- Secondary Daylighting Control Name
  ,                                       !- Fraction of Zone Controlled by Secondary Daylighting Control
  ,                                       !- Illuminance Map Name
  ,                                       !- Group Rendering Name
  {6109df08-0219-4484-a73e-81b3aaa077c7}, !- Thermostat Name
  No;                                     !- Use Ideal Air Loads

OS:Node,
  {d106c460-4ec9-45be-963d-32f4e2f30251}, !- Handle
  Node 2,                                 !- Name
  {e46e4740-e52c-45aa-86fd-26107f0a2b62}, !- Inlet Port
  ;                                       !- Outlet Port

OS:Connection,
  {e46e4740-e52c-45aa-86fd-26107f0a2b62}, !- Handle
  {808c68b8-e778-490d-b695-b7cbc24cbe45}, !- Name
  {f12b5f58-2ed2-422d-837b-c351d101fc5a}, !- Source Object
  11,                                     !- Outlet Port
  {d106c460-4ec9-45be-963d-32f4e2f30251}, !- Target Object
  2;                                      !- Inlet Port

OS:PortList,
  {34e4d46c-1ae7-4fa0-baaa-f38a8a37774a}, !- Handle
  {65588cc1-112a-479a-9add-7e648e6f2054}, !- Name
  {f12b5f58-2ed2-422d-837b-c351d101fc5a}, !- HVAC Component
  {c1b3f2c3-07cb-485f-a59c-f0a8628fe5a7}; !- Port 1

OS:PortList,
  {962fd4ae-19bb-4206-b84e-ce911eaefadd}, !- Handle
  {a3c6dfa2-6370-4a69-b7ef-4bd4c5886e14}, !- Name
  {f12b5f58-2ed2-422d-837b-c351d101fc5a}, !- HVAC Component
  {59e7018c-36f9-401e-99bf-5228c0cd31f7}; !- Port 1

OS:PortList,
  {76748589-4aab-4167-a884-7b1f4fbd7e5f}, !- Handle
  {a18c2383-2c3d-4ab7-a5f2-d3ac2b85d077}, !- Name
  {f12b5f58-2ed2-422d-837b-c351d101fc5a}; !- HVAC Component

OS:Sizing:Zone,
  {ec59ef8c-75ae-4ca5-b6ae-42a1f06c71a5}, !- Handle
  {f12b5f58-2ed2-422d-837b-c351d101fc5a}, !- Zone or ZoneList Name
  SupplyAirTemperature,                   !- Zone Cooling Design Supply Air Temperature Input Method
  12.7777777777778,                       !- Zone Cooling Design Supply Air Temperature {C}
  11.11,                                  !- Zone Cooling Design Supply Air Temperature Difference {deltaC}
  SupplyAirTemperature,                   !- Zone Heating Design Supply Air Temperature Input Method
  40.0000000000001,                       !- Zone Heating Design Supply Air Temperature {C}
  11.11,                                  !- Zone Heating Design Supply Air Temperature Difference {deltaC}
  0.0085,                                 !- Zone Cooling Design Supply Air Humidity Ratio {kg-H2O/kg-air}
  0.008,                                  !- Zone Heating Design Supply Air Humidity Ratio {kg-H2O/kg-air}
  ,                                       !- Zone Heating Sizing Factor
  ,                                       !- Zone Cooling Sizing Factor
  DesignDay,                              !- Cooling Design Air Flow Method
  ,                                       !- Cooling Design Air Flow Rate {m3/s}
  ,                                       !- Cooling Minimum Air Flow per Zone Floor Area {m3/s-m2}
  ,                                       !- Cooling Minimum Air Flow {m3/s}
  ,                                       !- Cooling Minimum Air Flow Fraction
  DesignDay,                              !- Heating Design Air Flow Method
  ,                                       !- Heating Design Air Flow Rate {m3/s}
  ,                                       !- Heating Maximum Air Flow per Zone Floor Area {m3/s-m2}
  ,                                       !- Heating Maximum Air Flow {m3/s}
  ,                                       !- Heating Maximum Air Flow Fraction
  ,                                       !- Design Zone Air Distribution Effectiveness in Cooling Mode
  ,                                       !- Design Zone Air Distribution Effectiveness in Heating Mode
  No,                                     !- Account for Dedicated Outdoor Air System
  NeutralSupplyAir,                       !- Dedicated Outdoor Air System Control Strategy
  autosize,                               !- Dedicated Outdoor Air Low Setpoint Temperature for Design {C}
  autosize;                               !- Dedicated Outdoor Air High Setpoint Temperature for Design {C}

OS:ZoneHVAC:EquipmentList,
  {cdf842d5-cd05-4dd7-a325-1b9d11c57ec4}, !- Handle
  Zone HVAC Equipment List 2,             !- Name
  {f12b5f58-2ed2-422d-837b-c351d101fc5a}, !- Thermal Zone
  ,                                       !- Load Distribution Scheme
  {7f39123d-c987-4727-b76a-a1f5e7212644}, !- Zone Equipment 1
  1,                                      !- Zone Equipment Cooling Sequence 1
  1,                                      !- Zone Equipment Heating or No-Load Sequence 1
  ,                                       !- Zone Equipment Sequential Cooling Fraction 1
  ;                                       !- Zone Equipment Sequential Heating Fraction 1

OS:Space,
  {3a4e4878-24ae-459c-b62b-9ceba35a2c24}, !- Handle
  living space|unit 2|story 1,            !- Name
  {94c16d9b-3c18-48e2-bfdc-8788ccf29a15}, !- Space Type Name
  ,                                       !- Default Construction Set Name
  ,                                       !- Default Schedule Set Name
  -0,                                     !- Direction of Relative North {deg}
  0,                                      !- X Origin {m}
  0,                                      !- Y Origin {m}
  0,                                      !- Z Origin {m}
  ,                                       !- Building Story Name
  {f12b5f58-2ed2-422d-837b-c351d101fc5a}, !- Thermal Zone Name
  ,                                       !- Part of Total Floor Area
  ,                                       !- Design Specification Outdoor Air Object Name
  {0b78697c-9e24-46e8-ae37-d2581bb60db8}; !- Building Unit Name

OS:Surface,
  {e1583dde-45c1-49cd-af22-3bda2ba075e9}, !- Handle
  Surface 12,                             !- Name
  Wall,                                   !- Surface Type
  ,                                       !- Construction Name
  {3a4e4878-24ae-459c-b62b-9ceba35a2c24}, !- Space Name
  Outdoors,                               !- Outside Boundary Condition
  ,                                       !- Outside Boundary Condition Object
  SunExposed,                             !- Sun Exposure
  WindExposed,                            !- Wind Exposure
  ,                                       !- View Factor to Ground
  ,                                       !- Number of Vertices
  6.46578440716979, -12.9315688143396, 2.4384, !- X,Y,Z Vertex 1 {m}
  6.46578440716979, -12.9315688143396, 0, !- X,Y,Z Vertex 2 {m}
  12.9315688143396, -12.9315688143396, 0, !- X,Y,Z Vertex 3 {m}
  12.9315688143396, -12.9315688143396, 2.4384; !- X,Y,Z Vertex 4 {m}

OS:Surface,
  {4b68c22d-e56a-4508-9aa6-518e55d99b54}, !- Handle
  Surface 13,                             !- Name
  Wall,                                   !- Surface Type
  ,                                       !- Construction Name
  {3a4e4878-24ae-459c-b62b-9ceba35a2c24}, !- Space Name
  Surface,                                !- Outside Boundary Condition
  {ddf2f1e1-9b93-46a1-9fd7-540db9855fa6}, !- Outside Boundary Condition Object
  NoSun,                                  !- Sun Exposure
  NoWind,                                 !- Wind Exposure
  ,                                       !- View Factor to Ground
  ,                                       !- Number of Vertices
  6.46578440716979, 0, 2.4384,            !- X,Y,Z Vertex 1 {m}
  6.46578440716979, 0, 0,                 !- X,Y,Z Vertex 2 {m}
  6.46578440716979, -12.9315688143396, 0, !- X,Y,Z Vertex 3 {m}
  6.46578440716979, -12.9315688143396, 2.4384; !- X,Y,Z Vertex 4 {m}

OS:Surface,
  {4d9e195b-a76e-4f14-b478-b22482941d92}, !- Handle
  Surface 14,                             !- Name
  Wall,                                   !- Surface Type
  ,                                       !- Construction Name
  {3a4e4878-24ae-459c-b62b-9ceba35a2c24}, !- Space Name
  Outdoors,                               !- Outside Boundary Condition
  ,                                       !- Outside Boundary Condition Object
  SunExposed,                             !- Sun Exposure
  WindExposed,                            !- Wind Exposure
  ,                                       !- View Factor to Ground
  ,                                       !- Number of Vertices
  12.9315688143396, 0, 2.4384,            !- X,Y,Z Vertex 1 {m}
  12.9315688143396, 0, 0,                 !- X,Y,Z Vertex 2 {m}
  6.46578440716979, 0, 0,                 !- X,Y,Z Vertex 3 {m}
  6.46578440716979, 0, 2.4384;            !- X,Y,Z Vertex 4 {m}

OS:Surface,
  {04c4c960-0a9b-456a-b923-d4cad20aad17}, !- Handle
  Surface 15,                             !- Name
  Floor,                                  !- Surface Type
  ,                                       !- Construction Name
  {3a4e4878-24ae-459c-b62b-9ceba35a2c24}, !- Space Name
  Foundation,                             !- Outside Boundary Condition
  ,                                       !- Outside Boundary Condition Object
  NoSun,                                  !- Sun Exposure
  NoWind,                                 !- Wind Exposure
  ,                                       !- View Factor to Ground
  ,                                       !- Number of Vertices
  6.46578440716979, -12.9315688143396, 0, !- X,Y,Z Vertex 1 {m}
  6.46578440716979, 0, 0,                 !- X,Y,Z Vertex 2 {m}
  12.9315688143396, 0, 0,                 !- X,Y,Z Vertex 3 {m}
  12.9315688143396, -12.9315688143396, 0; !- X,Y,Z Vertex 4 {m}

OS:Surface,
  {c0745c75-4d7f-411c-98d4-7ff38d70d0eb}, !- Handle
  Surface 16,                             !- Name
  RoofCeiling,                            !- Surface Type
  ,                                       !- Construction Name
  {3a4e4878-24ae-459c-b62b-9ceba35a2c24}, !- Space Name
  Surface,                                !- Outside Boundary Condition
  {e546adbb-0658-4bde-9400-f6bfcae2207d}, !- Outside Boundary Condition Object
  NoSun,                                  !- Sun Exposure
  NoWind,                                 !- Wind Exposure
  ,                                       !- View Factor to Ground
  ,                                       !- Number of Vertices
  12.9315688143396, -12.9315688143396, 2.4384, !- X,Y,Z Vertex 1 {m}
  12.9315688143396, 0, 2.4384,            !- X,Y,Z Vertex 2 {m}
  6.46578440716979, 0, 2.4384,            !- X,Y,Z Vertex 3 {m}
  6.46578440716979, -12.9315688143396, 2.4384; !- X,Y,Z Vertex 4 {m}

OS:Surface,
  {6e1d8e50-4956-46b1-8711-15b07b9df2a8}, !- Handle
  Surface 17,                             !- Name
  Wall,                                   !- Surface Type
  ,                                       !- Construction Name
  {3a4e4878-24ae-459c-b62b-9ceba35a2c24}, !- Space Name
  Surface,                                !- Outside Boundary Condition
  {0e4c5541-3011-4c02-9ab8-b4fbf494d446}, !- Outside Boundary Condition Object
  NoSun,                                  !- Sun Exposure
  NoWind,                                 !- Wind Exposure
  ,                                       !- View Factor to Ground
  ,                                       !- Number of Vertices
  12.9315688143396, -12.9315688143396, 2.4384, !- X,Y,Z Vertex 1 {m}
  12.9315688143396, -12.9315688143396, 0, !- X,Y,Z Vertex 2 {m}
  12.9315688143396, 0, 0,                 !- X,Y,Z Vertex 3 {m}
  12.9315688143396, 0, 2.4384;            !- X,Y,Z Vertex 4 {m}

OS:ThermalZone,
  {45cdca12-0f97-4a6d-93a2-ad3f792da1fc}, !- Handle
  living zone|unit 3,                     !- Name
  ,                                       !- Multiplier
  ,                                       !- Ceiling Height {m}
  ,                                       !- Volume {m3}
  ,                                       !- Floor Area {m2}
  ,                                       !- Zone Inside Convection Algorithm
  ,                                       !- Zone Outside Convection Algorithm
  ,                                       !- Zone Conditioning Equipment List Name
  {aab970c6-dbbf-4282-9de6-f639b64a7921}, !- Zone Air Inlet Port List
  {582f7ad4-6975-4e78-ba4d-6bbbafbe498b}, !- Zone Air Exhaust Port List
  {beee586b-4dc5-427b-8907-e515c487419a}, !- Zone Air Node Name
  {a44b0b6d-2438-4a3f-9d6b-2236c5e46c4f}, !- Zone Return Air Port List
  ,                                       !- Primary Daylighting Control Name
  ,                                       !- Fraction of Zone Controlled by Primary Daylighting Control
  ,                                       !- Secondary Daylighting Control Name
  ,                                       !- Fraction of Zone Controlled by Secondary Daylighting Control
  ,                                       !- Illuminance Map Name
  ,                                       !- Group Rendering Name
  {52ae7098-6b92-4b2e-9a72-25b48b953550}, !- Thermostat Name
  No;                                     !- Use Ideal Air Loads

OS:Node,
  {8716f58b-3847-426d-9757-fe552c69ef68}, !- Handle