!- NOTE: Auto-generated from /test/osw_files/SFA_4units_1story_SL_UA_3Beds_2Baths_Denver_MSHP.osw

OS:Version,
  {28366f2b-059c-4e53-9ce0-bd962ffdb453}, !- Handle
  2.8.1;                                  !- Version Identifier

OS:SimulationControl,
  {309ffb9f-2708-4c0e-b051-e2f7936f34b4}, !- Handle
  ,                                       !- Do Zone Sizing Calculation
  ,                                       !- Do System Sizing Calculation
  ,                                       !- Do Plant Sizing Calculation
  No;                                     !- Run Simulation for Sizing Periods

OS:Timestep,
  {726c6304-a1ad-4669-9f80-ea2a0835b285}, !- Handle
  6;                                      !- Number of Timesteps per Hour

OS:ShadowCalculation,
  {ca419e4d-d2c1-44c0-ab0e-1bc8cd5aba56}, !- Handle
  20,                                     !- Calculation Frequency
  200;                                    !- Maximum Figures in Shadow Overlap Calculations

OS:SurfaceConvectionAlgorithm:Outside,
  {d05ccdf1-a72a-445f-aa66-0a2b59c92d6c}, !- Handle
  DOE-2;                                  !- Algorithm

OS:SurfaceConvectionAlgorithm:Inside,
  {4a25e91c-cf74-4cbd-8c03-1b902d224573}, !- Handle
  TARP;                                   !- Algorithm

OS:ZoneCapacitanceMultiplier:ResearchSpecial,
  {7ce99c90-c31b-4836-acee-3cc8700b96c1}, !- Handle
  ,                                       !- Temperature Capacity Multiplier
  15,                                     !- Humidity Capacity Multiplier
  ;                                       !- Carbon Dioxide Capacity Multiplier

OS:RunPeriod,
  {4033c36b-7797-4a02-bfea-ce8964a3833f}, !- Handle
  Run Period 1,                           !- Name
  1,                                      !- Begin Month
  1,                                      !- Begin Day of Month
  12,                                     !- End Month
  31,                                     !- End Day of Month
  ,                                       !- Use Weather File Holidays and Special Days
  ,                                       !- Use Weather File Daylight Saving Period
  ,                                       !- Apply Weekend Holiday Rule
  ,                                       !- Use Weather File Rain Indicators
  ,                                       !- Use Weather File Snow Indicators
  ;                                       !- Number of Times Runperiod to be Repeated

OS:YearDescription,
  {580146fe-0fd0-4b76-9ce6-5de169102ee6}, !- Handle
  2007,                                   !- Calendar Year
  ,                                       !- Day of Week for Start Day
  ;                                       !- Is Leap Year

OS:ThermalZone,
  {9788cbf7-b0da-4793-8420-74742d762a91}, !- Handle
  living zone,                            !- Name
  ,                                       !- Multiplier
  ,                                       !- Ceiling Height {m}
  ,                                       !- Volume {m3}
  ,                                       !- Floor Area {m2}
  ,                                       !- Zone Inside Convection Algorithm
  ,                                       !- Zone Outside Convection Algorithm
  ,                                       !- Zone Conditioning Equipment List Name
  {9949c7f6-066a-4d8e-96d2-a97e3119d368}, !- Zone Air Inlet Port List
  {db87eeac-0ee8-463c-ac19-abc569989df2}, !- Zone Air Exhaust Port List
  {4598fe06-acfa-46b1-be36-3e8f1469247f}, !- Zone Air Node Name
  {ee6f8a46-2fe2-4876-ba25-57bbee65e8b7}, !- Zone Return Air Port List
  ,                                       !- Primary Daylighting Control Name
  ,                                       !- Fraction of Zone Controlled by Primary Daylighting Control
  ,                                       !- Secondary Daylighting Control Name
  ,                                       !- Fraction of Zone Controlled by Secondary Daylighting Control
  ,                                       !- Illuminance Map Name
  ,                                       !- Group Rendering Name
  {1102b9e4-2d7f-41c6-b45f-a859ec5ff535}, !- Thermostat Name
  No;                                     !- Use Ideal Air Loads

OS:Node,
  {c2d51257-e721-465e-ab2f-03a02111c9d1}, !- Handle
  Node 1,                                 !- Name
  {4598fe06-acfa-46b1-be36-3e8f1469247f}, !- Inlet Port
  ;                                       !- Outlet Port

OS:Connection,
  {4598fe06-acfa-46b1-be36-3e8f1469247f}, !- Handle
  {4b8d3847-d4e8-4900-adc2-6297b6a5c561}, !- Name
  {9788cbf7-b0da-4793-8420-74742d762a91}, !- Source Object
  11,                                     !- Outlet Port
  {c2d51257-e721-465e-ab2f-03a02111c9d1}, !- Target Object
  2;                                      !- Inlet Port

OS:PortList,
  {9949c7f6-066a-4d8e-96d2-a97e3119d368}, !- Handle
  {3b4e4c14-fe5f-46bd-9f36-22442062330f}, !- Name
  {9788cbf7-b0da-4793-8420-74742d762a91}, !- HVAC Component
  {222edeff-f650-4e78-88c8-38cf39201fc3}, !- Port 1
  {046ca45e-7a5b-466d-adfc-2abcf17c4013}; !- Port 2

OS:PortList,
  {db87eeac-0ee8-463c-ac19-abc569989df2}, !- Handle
  {e64e5c70-d43f-4b76-af9b-053518bce0df}, !- Name
  {9788cbf7-b0da-4793-8420-74742d762a91}; !- HVAC Component

OS:PortList,
  {ee6f8a46-2fe2-4876-ba25-57bbee65e8b7}, !- Handle
  {89243d60-6c93-44d6-bf4d-d5ed0c178789}, !- Name
  {9788cbf7-b0da-4793-8420-74742d762a91}, !- HVAC Component
  {91f4c631-7a18-473c-ac23-2391b2b39c71}, !- Port 1
  {5548c363-1dda-4711-82e9-c451323c8af2}; !- Port 2

OS:Sizing:Zone,
  {abd9cb3e-1a94-40e1-8a66-aa157dfd61ae}, !- Handle
  {9788cbf7-b0da-4793-8420-74742d762a91}, !- Zone or ZoneList Name
  SupplyAirTemperature,                   !- Zone Cooling Design Supply Air Temperature Input Method
  14,                                     !- Zone Cooling Design Supply Air Temperature {C}
  11.11,                                  !- Zone Cooling Design Supply Air Temperature Difference {deltaC}
  SupplyAirTemperature,                   !- Zone Heating Design Supply Air Temperature Input Method
  40,                                     !- Zone Heating Design Supply Air Temperature {C}
  11.11,                                  !- Zone Heating Design Supply Air Temperature Difference {deltaC}
  0.0085,                                 !- Zone Cooling Design Supply Air Humidity Ratio {kg-H2O/kg-air}
  0.008,                                  !- Zone Heating Design Supply Air Humidity Ratio {kg-H2O/kg-air}
  ,                                       !- Zone Heating Sizing Factor
  ,                                       !- Zone Cooling Sizing Factor
  DesignDay,                              !- Cooling Design Air Flow Method
  ,                                       !- Cooling Design Air Flow Rate {m3/s}
  ,                                       !- Cooling Minimum Air Flow per Zone Floor Area {m3/s-m2}
  ,                                       !- Cooling Minimum Air Flow {m3/s}
  ,                                       !- Cooling Minimum Air Flow Fraction
  DesignDay,                              !- Heating Design Air Flow Method
  ,                                       !- Heating Design Air Flow Rate {m3/s}
  ,                                       !- Heating Maximum Air Flow per Zone Floor Area {m3/s-m2}
  ,                                       !- Heating Maximum Air Flow {m3/s}
  ,                                       !- Heating Maximum Air Flow Fraction
  ,                                       !- Design Zone Air Distribution Effectiveness in Cooling Mode
  ,                                       !- Design Zone Air Distribution Effectiveness in Heating Mode
  No,                                     !- Account for Dedicated Outdoor Air System
  NeutralSupplyAir,                       !- Dedicated Outdoor Air System Control Strategy
  autosize,                               !- Dedicated Outdoor Air Low Setpoint Temperature for Design {C}
  autosize;                               !- Dedicated Outdoor Air High Setpoint Temperature for Design {C}

OS:ZoneHVAC:EquipmentList,
  {ad2f7ab8-8198-4f56-97ab-1bc42e95ba43}, !- Handle
  Zone HVAC Equipment List 1,             !- Name
  {9788cbf7-b0da-4793-8420-74742d762a91}, !- Thermal Zone
  SequentialLoad,                         !- Load Distribution Scheme
  {18d6a14a-7049-4e79-9251-586f8caa2126}, !- Zone Equipment 1
  1,                                      !- Zone Equipment Cooling Sequence 1
  1,                                      !- Zone Equipment Heating or No-Load Sequence 1
  ,                                       !- Zone Equipment Sequential Cooling Fraction 1
  ,                                       !- Zone Equipment Sequential Heating Fraction 1
  {e9fdd983-66d6-4640-ad39-7ad54535c3c5}, !- Zone Equipment 2
  2,                                      !- Zone Equipment Cooling Sequence 2
  2,                                      !- Zone Equipment Heating or No-Load Sequence 2
  ,                                       !- Zone Equipment Sequential Cooling Fraction 2
  ;                                       !- Zone Equipment Sequential Heating Fraction 2

OS:Space,
  {a3ad314b-cec2-449c-b34b-f0afe4809983}, !- Handle
  living space,                           !- Name
  {f1b0f25c-d83f-49c8-9a5b-716b8568da41}, !- Space Type Name
  ,                                       !- Default Construction Set Name
  ,                                       !- Default Schedule Set Name
  ,                                       !- Direction of Relative North {deg}
  ,                                       !- X Origin {m}
  ,                                       !- Y Origin {m}
  ,                                       !- Z Origin {m}
  ,                                       !- Building Story Name
  {9788cbf7-b0da-4793-8420-74742d762a91}, !- Thermal Zone Name
  ,                                       !- Part of Total Floor Area
  ,                                       !- Design Specification Outdoor Air Object Name
  {798f4268-dff3-4a11-9310-3636c4cec2ed}; !- Building Unit Name

OS:Surface,
  {f2c73fbb-18d2-4359-8f40-03c42b8011b6}, !- Handle
  Surface 1,                              !- Name
  Floor,                                  !- Surface Type
  ,                                       !- Construction Name
  {a3ad314b-cec2-449c-b34b-f0afe4809983}, !- Space Name
  Foundation,                             !- Outside Boundary Condition
  ,                                       !- Outside Boundary Condition Object
  NoSun,                                  !- Sun Exposure
  NoWind,                                 !- Wind Exposure
  ,                                       !- View Factor to Ground
  ,                                       !- Number of Vertices
  0, -12.9315688143396, 0,                !- X,Y,Z Vertex 1 {m}
  0, 0, 0,                                !- X,Y,Z Vertex 2 {m}
  6.46578440716979, 0, 0,                 !- X,Y,Z Vertex 3 {m}
  6.46578440716979, -12.9315688143396, 0; !- X,Y,Z Vertex 4 {m}

OS:Surface,
  {e50ad7ad-5c2f-498d-b21b-7755c92bf41c}, !- Handle
  Surface 2,                              !- Name
  Wall,                                   !- Surface Type
  ,                                       !- Construction Name
  {a3ad314b-cec2-449c-b34b-f0afe4809983}, !- Space Name
  Outdoors,                               !- Outside Boundary Condition
  ,                                       !- Outside Boundary Condition Object
  SunExposed,                             !- Sun Exposure
  WindExposed,                            !- Wind Exposure
  ,                                       !- View Factor to Ground
  ,                                       !- Number of Vertices
  0, 0, 2.4384,                           !- X,Y,Z Vertex 1 {m}
  0, 0, 0,                                !- X,Y,Z Vertex 2 {m}
  0, -12.9315688143396, 0,                !- X,Y,Z Vertex 3 {m}
  0, -12.9315688143396, 2.4384;           !- X,Y,Z Vertex 4 {m}

OS:Surface,
  {bd19630b-8114-4ccb-be85-0d7d20074a2f}, !- Handle
  Surface 3,                              !- Name
  Wall,                                   !- Surface Type
  ,                                       !- Construction Name
  {a3ad314b-cec2-449c-b34b-f0afe4809983}, !- Space Name
  Outdoors,                               !- Outside Boundary Condition
  ,                                       !- Outside Boundary Condition Object
  SunExposed,                             !- Sun Exposure
  WindExposed,                            !- Wind Exposure
  ,                                       !- View Factor to Ground
  ,                                       !- Number of Vertices
  6.46578440716979, 0, 2.4384,            !- X,Y,Z Vertex 1 {m}
  6.46578440716979, 0, 0,                 !- X,Y,Z Vertex 2 {m}
  0, 0, 0,                                !- X,Y,Z Vertex 3 {m}
  0, 0, 2.4384;                           !- X,Y,Z Vertex 4 {m}

OS:Surface,
  {cea807c1-335a-4273-8327-72084383483f}, !- Handle
  Surface 4,                              !- Name
  Wall,                                   !- Surface Type
  ,                                       !- Construction Name
  {a3ad314b-cec2-449c-b34b-f0afe4809983}, !- Space Name
  Surface,                                !- Outside Boundary Condition
  {6903bf34-2264-42cb-916e-a84a6c9a6782}, !- Outside Boundary Condition Object
  NoSun,                                  !- Sun Exposure
  NoWind,                                 !- Wind Exposure
  ,                                       !- View Factor to Ground
  ,                                       !- Number of Vertices
  6.46578440716979, -12.9315688143396, 2.4384, !- X,Y,Z Vertex 1 {m}
  6.46578440716979, -12.9315688143396, 0, !- X,Y,Z Vertex 2 {m}
  6.46578440716979, 0, 0,                 !- X,Y,Z Vertex 3 {m}
  6.46578440716979, 0, 2.4384;            !- X,Y,Z Vertex 4 {m}

OS:Surface,
  {40c41b38-779d-4e86-9f3c-e58e3836bd19}, !- Handle
  Surface 5,                              !- Name
  Wall,                                   !- Surface Type
  ,                                       !- Construction Name
  {a3ad314b-cec2-449c-b34b-f0afe4809983}, !- Space Name
  Outdoors,                               !- Outside Boundary Condition
  ,                                       !- Outside Boundary Condition Object
  SunExposed,                             !- Sun Exposure
  WindExposed,                            !- Wind Exposure
  ,                                       !- View Factor to Ground
  ,                                       !- Number of Vertices
  0, -12.9315688143396, 2.4384,           !- X,Y,Z Vertex 1 {m}
  0, -12.9315688143396, 0,                !- X,Y,Z Vertex 2 {m}
  6.46578440716979, -12.9315688143396, 0, !- X,Y,Z Vertex 3 {m}
  6.46578440716979, -12.9315688143396, 2.4384; !- X,Y,Z Vertex 4 {m}

OS:Surface,
  {b4fb6ca5-272b-4e29-b829-07b993bcee24}, !- Handle
  Surface 6,                              !- Name
  RoofCeiling,                            !- Surface Type
  ,                                       !- Construction Name
  {a3ad314b-cec2-449c-b34b-f0afe4809983}, !- Space Name
  Surface,                                !- Outside Boundary Condition
  {c51baa17-b7e9-4f5d-9880-a04ee7b3ecc8}, !- Outside Boundary Condition Object
  NoSun,                                  !- Sun Exposure
  NoWind,                                 !- Wind Exposure
  ,                                       !- View Factor to Ground
  ,                                       !- Number of Vertices
  6.46578440716979, -12.9315688143396, 2.4384, !- X,Y,Z Vertex 1 {m}
  6.46578440716979, 0, 2.4384,            !- X,Y,Z Vertex 2 {m}
  0, 0, 2.4384,                           !- X,Y,Z Vertex 3 {m}
  0, -12.9315688143396, 2.4384;           !- X,Y,Z Vertex 4 {m}

OS:SpaceType,
  {f1b0f25c-d83f-49c8-9a5b-716b8568da41}, !- Handle
  Space Type 1,                           !- Name
  ,                                       !- Default Construction Set Name
  ,                                       !- Default Schedule Set Name
  ,                                       !- Group Rendering Name
  ,                                       !- Design Specification Outdoor Air Object Name
  ,                                       !- Standards Template
  ,                                       !- Standards Building Type
  living;                                 !- Standards Space Type

OS:ThermalZone,
  {5c258452-2c50-4c0b-9c97-41987958c4fe}, !- Handle
  living zone|unit 2,                     !- Name
  ,                                       !- Multiplier
  ,                                       !- Ceiling Height {m}
  ,                                       !- Volume {m3}
  ,                                       !- Floor Area {m2}
  ,                                       !- Zone Inside Convection Algorithm
  ,                                       !- Zone Outside Convection Algorithm
  ,                                       !- Zone Conditioning Equipment List Name
  {bc08d25a-e06a-4868-88b2-383a78345ff2}, !- Zone Air Inlet Port List
  {f9af914c-5d53-4c72-92d3-d7ab4a8a0a49}, !- Zone Air Exhaust Port List
  {a0946649-6e06-4462-9921-9b3ce8b51f20}, !- Zone Air Node Name
  {17dfc6b8-91a4-458c-bdab-53e32d1d1974}, !- Zone Return Air Port List
  ,                                       !- Primary Daylighting Control Name
  ,                                       !- Fraction of Zone Controlled by Primary Daylighting Control
  ,                                       !- Secondary Daylighting Control Name
  ,                                       !- Fraction of Zone Controlled by Secondary Daylighting Control
  ,                                       !- Illuminance Map Name
  ,                                       !- Group Rendering Name
  {a168b953-eba3-4b8a-9754-9ee8e5543be5}, !- Thermostat Name
  No;                                     !- Use Ideal Air Loads

OS:Node,
  {69358c61-cd8c-4097-8a3f-703232dd56f0}, !- Handle
  Node 2,                                 !- Name
  {a0946649-6e06-4462-9921-9b3ce8b51f20}, !- Inlet Port
  ;                                       !- Outlet Port

OS:Connection,
  {a0946649-6e06-4462-9921-9b3ce8b51f20}, !- Handle
  {7b0e98f5-828a-4b04-b6b5-4ebac392bc64}, !- Name
  {5c258452-2c50-4c0b-9c97-41987958c4fe}, !- Source Object
  11,                                     !- Outlet Port
  {69358c61-cd8c-4097-8a3f-703232dd56f0}, !- Target Object
  2;                                      !- Inlet Port

OS:PortList,
  {bc08d25a-e06a-4868-88b2-383a78345ff2}, !- Handle
  {271679f6-9870-4790-9256-9d33a70274a4}, !- Name
  {5c258452-2c50-4c0b-9c97-41987958c4fe}, !- HVAC Component
  {59db2210-19f8-4818-9ddf-0dabb6b0b41c}, !- Port 1
  {2a2bd65a-9011-4360-bdb3-d96e51ea9dab}; !- Port 2

OS:PortList,
  {f9af914c-5d53-4c72-92d3-d7ab4a8a0a49}, !- Handle
  {c338ce6f-e170-48c7-a4dd-ed0b5ff90e05}, !- Name
  {5c258452-2c50-4c0b-9c97-41987958c4fe}; !- HVAC Component

OS:PortList,
  {17dfc6b8-91a4-458c-bdab-53e32d1d1974}, !- Handle
  {401316b2-f081-4d78-b9f2-d73fdb4ff98f}, !- Name
  {5c258452-2c50-4c0b-9c97-41987958c4fe}, !- HVAC Component
  {253f7a2c-cb87-41e7-9dd7-0d9c536816da}, !- Port 1
  {a8389819-498e-4da3-82eb-0b3f1de6b3ce}; !- Port 2

OS:Sizing:Zone,
  {155bb195-4337-42f2-a93e-74a20c1b7b42}, !- Handle
  {5c258452-2c50-4c0b-9c97-41987958c4fe}, !- Zone or ZoneList Name
  SupplyAirTemperature,                   !- Zone Cooling Design Supply Air Temperature Input Method
  14,                                     !- Zone Cooling Design Supply Air Temperature {C}
  11.11,                                  !- Zone Cooling Design Supply Air Temperature Difference {deltaC}
  SupplyAirTemperature,                   !- Zone Heating Design Supply Air Temperature Input Method
  40,                                     !- Zone Heating Design Supply Air Temperature {C}
  11.11,                                  !- Zone Heating Design Supply Air Temperature Difference {deltaC}
  0.0085,                                 !- Zone Cooling Design Supply Air Humidity Ratio {kg-H2O/kg-air}
  0.008,                                  !- Zone Heating Design Supply Air Humidity Ratio {kg-H2O/kg-air}
  ,                                       !- Zone Heating Sizing Factor
  ,                                       !- Zone Cooling Sizing Factor
  DesignDay,                              !- Cooling Design Air Flow Method
  ,                                       !- Cooling Design Air Flow Rate {m3/s}
  ,                                       !- Cooling Minimum Air Flow per Zone Floor Area {m3/s-m2}
  ,                                       !- Cooling Minimum Air Flow {m3/s}
  ,                                       !- Cooling Minimum Air Flow Fraction
  DesignDay,                              !- Heating Design Air Flow Method
  ,                                       !- Heating Design Air Flow Rate {m3/s}
  ,                                       !- Heating Maximum Air Flow per Zone Floor Area {m3/s-m2}
  ,                                       !- Heating Maximum Air Flow {m3/s}
  ,                                       !- Heating Maximum Air Flow Fraction
  ,                                       !- Design Zone Air Distribution Effectiveness in Cooling Mode
  ,                                       !- Design Zone Air Distribution Effectiveness in Heating Mode
  No,                                     !- Account for Dedicated Outdoor Air System
  NeutralSupplyAir,                       !- Dedicated Outdoor Air System Control Strategy
  autosize,                               !- Dedicated Outdoor Air Low Setpoint Temperature for Design {C}
  autosize;                               !- Dedicated Outdoor Air High Setpoint Temperature for Design {C}

OS:ZoneHVAC:EquipmentList,
  {d1981a9a-3143-4b16-b112-f69d690c1e55}, !- Handle
  Zone HVAC Equipment List 2,             !- Name
  {5c258452-2c50-4c0b-9c97-41987958c4fe}, !- Thermal Zone
  SequentialLoad,                         !- Load Distribution Scheme
  {96751b22-638c-492c-a9ca-3f264edf82db}, !- Zone Equipment 1
  1,                                      !- Zone Equipment Cooling Sequence 1
  1,                                      !- Zone Equipment Heating or No-Load Sequence 1
  ,                                       !- Zone Equipment Sequential Cooling Fraction 1
  ,                                       !- Zone Equipment Sequential Heating Fraction 1
  {7701d9c6-bc3a-4b36-8b9f-b38afd012e94}, !- Zone Equipment 2
  2,                                      !- Zone Equipment Cooling Sequence 2
  2,                                      !- Zone Equipment Heating or No-Load Sequence 2
  ,                                       !- Zone Equipment Sequential Cooling Fraction 2
  ;                                       !- Zone Equipment Sequential Heating Fraction 2

OS:Space,
  {3172140d-e8f1-41e0-8c5d-da61fcbec114}, !- Handle
  living space|unit 2|story 1,            !- Name
  {f1b0f25c-d83f-49c8-9a5b-716b8568da41}, !- Space Type Name
  ,                                       !- Default Construction Set Name
  ,                                       !- Default Schedule Set Name
  -0,                                     !- Direction of Relative North {deg}
  0,                                      !- X Origin {m}
  0,                                      !- Y Origin {m}
  0,                                      !- Z Origin {m}
  ,                                       !- Building Story Name
  {5c258452-2c50-4c0b-9c97-41987958c4fe}, !- Thermal Zone Name
  ,                                       !- Part of Total Floor Area
  ,                                       !- Design Specification Outdoor Air Object Name
  {57922490-bad2-4588-b428-48835940a9af}; !- Building Unit Name

OS:Surface,
  {2433801d-bc57-4e82-9043-4094e5c568f6}, !- Handle
  Surface 12,                             !- Name
  Floor,                                  !- Surface Type
  ,                                       !- Construction Name
  {3172140d-e8f1-41e0-8c5d-da61fcbec114}, !- Space Name
  Foundation,                             !- Outside Boundary Condition
  ,                                       !- Outside Boundary Condition Object
  NoSun,                                  !- Sun Exposure
  NoWind,                                 !- Wind Exposure
  ,                                       !- View Factor to Ground
  ,                                       !- Number of Vertices
  6.46578440716979, -12.9315688143396, 0, !- X,Y,Z Vertex 1 {m}
  6.46578440716979, 0, 0,                 !- X,Y,Z Vertex 2 {m}
  12.9315688143396, 0, 0,                 !- X,Y,Z Vertex 3 {m}
  12.9315688143396, -12.9315688143396, 0; !- X,Y,Z Vertex 4 {m}

OS:Surface,
  {f466419c-15be-4e3f-bafb-5e6fcb081318}, !- Handle
  Surface 13,                             !- Name
  Wall,                                   !- Surface Type
  ,                                       !- Construction Name
  {3172140d-e8f1-41e0-8c5d-da61fcbec114}, !- Space Name
  Outdoors,                               !- Outside Boundary Condition
  ,                                       !- Outside Boundary Condition Object
  SunExposed,                             !- Sun Exposure
  WindExposed,                            !- Wind Exposure
  ,                                       !- View Factor to Ground
  ,                                       !- Number of Vertices
  12.9315688143396, 0, 2.4384,            !- X,Y,Z Vertex 1 {m}
  12.9315688143396, 0, 0,                 !- X,Y,Z Vertex 2 {m}
  6.46578440716979, 0, 0,                 !- X,Y,Z Vertex 3 {m}
  6.46578440716979, 0, 2.4384;            !- X,Y,Z Vertex 4 {m}

OS:Surface,
  {6903bf34-2264-42cb-916e-a84a6c9a6782}, !- Handle
  Surface 14,                             !- Name
  Wall,                                   !- Surface Type
  ,                                       !- Construction Name
  {3172140d-e8f1-41e0-8c5d-da61fcbec114}, !- Space Name
  Surface,                                !- Outside Boundary Condition
  {cea807c1-335a-4273-8327-72084383483f}, !- Outside Boundary Condition Object
  NoSun,                                  !- Sun Exposure
  NoWind,                                 !- Wind Exposure
  ,                                       !- View Factor to Ground
  ,                                       !- Number of Vertices
  6.46578440716979, 0, 2.4384,            !- X,Y,Z Vertex 1 {m}
  6.46578440716979, 0, 0,                 !- X,Y,Z Vertex 2 {m}
  6.46578440716979, -12.9315688143396, 0, !- X,Y,Z Vertex 3 {m}
  6.46578440716979, -12.9315688143396, 2.4384; !- X,Y,Z Vertex 4 {m}

OS:Surface,
  {92ce32e1-dd3a-43b3-9854-83458093d3d0}, !- Handle
  Surface 15,                             !- Name
  Wall,                                   !- Surface Type
  ,                                       !- Construction Name
  {3172140d-e8f1-41e0-8c5d-da61fcbec114}, !- Space Name
  Surface,                                !- Outside Boundary Condition
  {40d22682-bfd3-4fdc-855f-2f23ca1f509b}, !- Outside Boundary Condition Object
  NoSun,                                  !- Sun Exposure
  NoWind,                                 !- Wind Exposure
  ,                                       !- View Factor to Ground
  ,                                       !- Number of Vertices
  12.9315688143396, -12.9315688143396, 2.4384, !- X,Y,Z Vertex 1 {m}
  12.9315688143396, -12.9315688143396, 0, !- X,Y,Z Vertex 2 {m}
  12.9315688143396, 0, 0,                 !- X,Y,Z Vertex 3 {m}
  12.9315688143396, 0, 2.4384;            !- X,Y,Z Vertex 4 {m}

OS:Surface,
  {ec9ebad7-4846-4dac-8123-024ff9f1e70b}, !- Handle
  Surface 16,                             !- Name
  Wall,                                   !- Surface Type
  ,                                       !- Construction Name
  {3172140d-e8f1-41e0-8c5d-da61fcbec114}, !- Space Name
  Outdoors,                               !- Outside Boundary Condition
  ,                                       !- Outside Boundary Condition Object
  SunExposed,                             !- Sun Exposure
  WindExposed,                            !- Wind Exposure
  ,                                       !- View Factor to Ground
  ,                                       !- Number of Vertices
  6.46578440716979, -12.9315688143396, 2.4384, !- X,Y,Z Vertex 1 {m}
  6.46578440716979, -12.9315688143396, 0, !- X,Y,Z Vertex 2 {m}
  12.9315688143396, -12.9315688143396, 0, !- X,Y,Z Vertex 3 {m}
  12.9315688143396, -12.9315688143396, 2.4384; !- X,Y,Z Vertex 4 {m}

OS:Surface,
  {15661536-384a-4c5c-84a2-b34427cda808}, !- Handle
  Surface 17,                             !- Name
  RoofCeiling,                            !- Surface Type
  ,                                       !- Construction Name
  {3172140d-e8f1-41e0-8c5d-da61fcbec114}, !- Space Name
  Surface,                                !- Outside Boundary Condition
  {c5318771-f7d5-4d00-aa94-fe7d8ce91434}, !- Outside Boundary Condition Object
  NoSun,                                  !- Sun Exposure
  NoWind,                                 !- Wind Exposure
  ,                                       !- View Factor to Ground
  ,                                       !- Number of Vertices
  12.9315688143396, -12.9315688143396, 2.4384, !- X,Y,Z Vertex 1 {m}
  12.9315688143396, 0, 2.4384,            !- X,Y,Z Vertex 2 {m}
  6.46578440716979, 0, 2.4384,            !- X,Y,Z Vertex 3 {m}
  6.46578440716979, -12.9315688143396, 2.4384; !- X,Y,Z Vertex 4 {m}

OS:ThermalZone,
  {d71ab858-ed25-49a9-b79c-0db5e77f3ebf}, !- Handle
  living zone|unit 3,                     !- Name
  ,                                       !- Multiplier
  ,                                       !- Ceiling Height {m}
  ,                                       !- Volume {m3}
  ,                                       !- Floor Area {m2}
  ,                                       !- Zone Inside Convection Algorithm
  ,                                       !- Zone Outside Convection Algorithm
  ,                                       !- Zone Conditioning Equipment List Name