!- NOTE: Auto-generated from /test/osw_files/SFA_10units_2story_CS_UA_3Beds_2Baths_Denver.osw

OS:Version,
<<<<<<< HEAD
<<<<<<< HEAD
  {b13c2ff5-3c2e-49e3-9355-baa3059db6af}, !- Handle
  2.9.1;                                  !- Version Identifier

OS:SimulationControl,
  {449b401c-ff6c-466c-b4df-dfe66744d980}, !- Handle
=======
  {7fa39888-498c-4e02-ac01-cb47ebc2e336}, !- Handle
  3.2.1;                                  !- Version Identifier

OS:SimulationControl,
  {84386b4e-4945-4871-9b92-dfc00ce6ba80}, !- Handle
>>>>>>> develop
=======
  {4f643b65-7560-43d5-a1d6-661e5c0547e3}, !- Handle
  3.2.1;                                  !- Version Identifier

OS:SimulationControl,
  {9451f235-0a08-4d01-a65f-e143ceb8a7a7}, !- Handle
>>>>>>> develop
  ,                                       !- Do Zone Sizing Calculation
  ,                                       !- Do System Sizing Calculation
  ,                                       !- Do Plant Sizing Calculation
  No;                                     !- Run Simulation for Sizing Periods

OS:Timestep,
<<<<<<< HEAD
<<<<<<< HEAD
  {dc1871cc-4885-45b4-9000-11baf1f270e4}, !- Handle
  6;                                      !- Number of Timesteps per Hour

OS:ShadowCalculation,
  {a3ef6556-c36d-4641-8e13-b6767e91baff}, !- Handle
  20,                                     !- Calculation Frequency
  200;                                    !- Maximum Figures in Shadow Overlap Calculations

OS:SurfaceConvectionAlgorithm:Outside,
  {9b1f891d-8af2-41b4-a914-f57e37b6ceb3}, !- Handle
  DOE-2;                                  !- Algorithm

OS:SurfaceConvectionAlgorithm:Inside,
  {ed26e9e9-ccb3-416a-809c-8b0c7ec25a69}, !- Handle
  TARP;                                   !- Algorithm

OS:ZoneCapacitanceMultiplier:ResearchSpecial,
  {3386ad19-bb4f-46de-9b21-8b571a0a542d}, !- Handle
=======
  {180c8462-a775-4a52-821f-4fe19d5b6701}, !- Handle
=======
  {022b0d4f-7b13-442a-92b5-8d607b05eeb9}, !- Handle
>>>>>>> develop
  6;                                      !- Number of Timesteps per Hour

OS:ShadowCalculation,
  {7e0a55bd-6c74-4cbc-9c39-b4c575e051dd}, !- Handle
  PolygonClipping,                        !- Shading Calculation Method
  ,                                       !- Shading Calculation Update Frequency Method
  20,                                     !- Shading Calculation Update Frequency
  200,                                    !- Maximum Figures in Shadow Overlap Calculations
  ,                                       !- Polygon Clipping Algorithm
  512,                                    !- Pixel Counting Resolution
  DetailedSkyDiffuseModeling,             !- Sky Diffuse Modeling Algorithm
  No,                                     !- Output External Shading Calculation Results
  No,                                     !- Disable Self-Shading Within Shading Zone Groups
  No;                                     !- Disable Self-Shading From Shading Zone Groups to Other Zones

OS:SurfaceConvectionAlgorithm:Outside,
  {ab577450-167c-4666-9b73-8c53fc1d5fce}, !- Handle
  DOE-2;                                  !- Algorithm

OS:SurfaceConvectionAlgorithm:Inside,
  {04d46237-bb61-46b2-8ce0-3214df5cf44a}, !- Handle
  TARP;                                   !- Algorithm

OS:ZoneCapacitanceMultiplier:ResearchSpecial,
<<<<<<< HEAD
  {8e4179f5-3285-4d4a-98f6-24c96ac11104}, !- Handle
>>>>>>> develop
=======
  {939f9ab1-446b-4c91-a50d-e6c695b66c7f}, !- Handle
>>>>>>> develop
  ,                                       !- Temperature Capacity Multiplier
  15,                                     !- Humidity Capacity Multiplier
  ;                                       !- Carbon Dioxide Capacity Multiplier

OS:RunPeriod,
<<<<<<< HEAD
<<<<<<< HEAD
  {c7a0a2a8-154b-43e5-8ac4-6b74be8de2c0}, !- Handle
=======
  {5f09546b-0152-4f75-bab5-b5a6ec42eeed}, !- Handle
>>>>>>> develop
=======
  {cf4887dc-1795-401f-b988-2a24e3d4cebb}, !- Handle
>>>>>>> develop
  Run Period 1,                           !- Name
  1,                                      !- Begin Month
  1,                                      !- Begin Day of Month
  12,                                     !- End Month
  31,                                     !- End Day of Month
  ,                                       !- Use Weather File Holidays and Special Days
  ,                                       !- Use Weather File Daylight Saving Period
  ,                                       !- Apply Weekend Holiday Rule
  ,                                       !- Use Weather File Rain Indicators
  ,                                       !- Use Weather File Snow Indicators
  ;                                       !- Number of Times Runperiod to be Repeated

OS:YearDescription,
<<<<<<< HEAD
<<<<<<< HEAD
  {4e0132b1-bac7-46a7-99d8-ebc9cecf1f2e}, !- Handle
=======
  {fda9e862-c954-4e68-b47a-0caeb7aea497}, !- Handle
>>>>>>> develop
=======
  {ea94471b-6456-456e-bb61-c5fef5cc358b}, !- Handle
>>>>>>> develop
  2007,                                   !- Calendar Year
  ,                                       !- Day of Week for Start Day
  ;                                       !- Is Leap Year

OS:WeatherFile,
<<<<<<< HEAD
<<<<<<< HEAD
  {a1759b30-da86-4635-8105-4fce789b308d}, !- Handle
=======
  {96f8e23e-9ab3-42db-a4cd-f31b47c9d0ca}, !- Handle
>>>>>>> develop
=======
  {5bf4ed3d-fb97-46b1-a9fb-48ccfc6a928f}, !- Handle
>>>>>>> develop
  Denver Intl Ap,                         !- City
  CO,                                     !- State Province Region
  USA,                                    !- Country
  TMY3,                                   !- Data Source
  725650,                                 !- WMO Number
  39.83,                                  !- Latitude {deg}
  -104.65,                                !- Longitude {deg}
  -7,                                     !- Time Zone {hr}
  1650,                                   !- Elevation {m}
  C:/Users/aspeake/Documents/resstock/resources/measures/HPXMLtoOpenStudio/weather/USA_CO_Denver.Intl.AP.725650_TMY3.epw, !- Url
  E23378AA;                               !- Checksum

OS:AdditionalProperties,
<<<<<<< HEAD
<<<<<<< HEAD
  {ca8e04a3-f500-40d9-80ce-7d5a75100058}, !- Handle
  {a1759b30-da86-4635-8105-4fce789b308d}, !- Object Name
=======
  {48e38fd6-532f-425c-9321-bcf6ca45c7c1}, !- Handle
  {96f8e23e-9ab3-42db-a4cd-f31b47c9d0ca}, !- Object Name
>>>>>>> develop
=======
  {d8b78fdd-1487-4d9c-9b40-a0c023eebb31}, !- Handle
  {5bf4ed3d-fb97-46b1-a9fb-48ccfc6a928f}, !- Object Name
>>>>>>> develop
  EPWHeaderCity,                          !- Feature Name 1
  String,                                 !- Feature Data Type 1
  Denver Intl Ap,                         !- Feature Value 1
  EPWHeaderState,                         !- Feature Name 2
  String,                                 !- Feature Data Type 2
  CO,                                     !- Feature Value 2
  EPWHeaderCountry,                       !- Feature Name 3
  String,                                 !- Feature Data Type 3
  USA,                                    !- Feature Value 3
  EPWHeaderDataSource,                    !- Feature Name 4
  String,                                 !- Feature Data Type 4
  TMY3,                                   !- Feature Value 4
  EPWHeaderStation,                       !- Feature Name 5
  String,                                 !- Feature Data Type 5
  725650,                                 !- Feature Value 5
  EPWHeaderLatitude,                      !- Feature Name 6
  Double,                                 !- Feature Data Type 6
  39.829999999999998,                     !- Feature Value 6
  EPWHeaderLongitude,                     !- Feature Name 7
  Double,                                 !- Feature Data Type 7
  -104.65000000000001,                    !- Feature Value 7
  EPWHeaderTimezone,                      !- Feature Name 8
  Double,                                 !- Feature Data Type 8
  -7,                                     !- Feature Value 8
  EPWHeaderAltitude,                      !- Feature Name 9
  Double,                                 !- Feature Data Type 9
  5413.3858267716532,                     !- Feature Value 9
  EPWHeaderLocalPressure,                 !- Feature Name 10
  Double,                                 !- Feature Data Type 10
  0.81937567683596546,                    !- Feature Value 10
  EPWHeaderRecordsPerHour,                !- Feature Name 11
  Double,                                 !- Feature Data Type 11
  0,                                      !- Feature Value 11
  EPWDataAnnualAvgDrybulb,                !- Feature Name 12
  Double,                                 !- Feature Data Type 12
  51.575616438356228,                     !- Feature Value 12
  EPWDataAnnualMinDrybulb,                !- Feature Name 13
  Double,                                 !- Feature Data Type 13
  -2.9200000000000017,                    !- Feature Value 13
  EPWDataAnnualMaxDrybulb,                !- Feature Name 14
  Double,                                 !- Feature Data Type 14
  104,                                    !- Feature Value 14
  EPWDataCDD50F,                          !- Feature Name 15
  Double,                                 !- Feature Data Type 15
  3072.2925000000005,                     !- Feature Value 15
  EPWDataCDD65F,                          !- Feature Name 16
  Double,                                 !- Feature Data Type 16
  883.62000000000035,                     !- Feature Value 16
  EPWDataHDD50F,                          !- Feature Name 17
  Double,                                 !- Feature Data Type 17
  2497.1925000000001,                     !- Feature Value 17
  EPWDataHDD65F,                          !- Feature Name 18
  Double,                                 !- Feature Data Type 18
  5783.5200000000013,                     !- Feature Value 18
  EPWDataAnnualAvgWindspeed,              !- Feature Name 19
  Double,                                 !- Feature Data Type 19
  3.9165296803649667,                     !- Feature Value 19
  EPWDataMonthlyAvgDrybulbs,              !- Feature Name 20
  String,                                 !- Feature Data Type 20
  33.4191935483871&#4431.90142857142857&#4443.02620967741937&#4442.48624999999999&#4459.877741935483854&#4473.57574999999997&#4472.07975806451608&#4472.70008064516134&#4466.49200000000006&#4450.079112903225806&#4437.218250000000005&#4434.582177419354835, !- Feature Value 20
  EPWDataGroundMonthlyTemps,              !- Feature Name 21
  String,                                 !- Feature Data Type 21
  44.08306285945173&#4440.89570904991865&#4440.64045432632048&#4442.153016571250646&#4448.225111118704206&#4454.268919273837525&#4459.508577937551024&#4462.82777283423508&#4463.10975667174995&#4460.41014950381947&#4455.304105212311526&#4449.445696474514364, !- Feature Value 21
  EPWDataWSF,                             !- Feature Name 22
  Double,                                 !- Feature Data Type 22
  0.58999999999999997,                    !- Feature Value 22
  EPWDataMonthlyAvgDailyHighDrybulbs,     !- Feature Name 23
  String,                                 !- Feature Data Type 23
  47.41032258064516&#4446.58642857142857&#4455.15032258064517&#4453.708&#4472.80193548387098&#4488.67600000000002&#4486.1858064516129&#4485.87225806451613&#4482.082&#4463.18064516129033&#4448.73400000000001&#4448.87935483870968, !- Feature Value 23
  EPWDataMonthlyAvgDailyLowDrybulbs,      !- Feature Name 24
  String,                                 !- Feature Data Type 24
  19.347741935483874&#4419.856428571428573&#4430.316129032258065&#4431.112&#4447.41612903225806&#4457.901999999999994&#4459.063870967741934&#4460.956774193548384&#4452.352000000000004&#4438.41612903225806&#4427.002000000000002&#4423.02903225806451, !- Feature Value 24
  EPWDesignHeatingDrybulb,                !- Feature Name 25
  Double,                                 !- Feature Data Type 25
  12.02,                                  !- Feature Value 25
  EPWDesignHeatingWindspeed,              !- Feature Name 26
  Double,                                 !- Feature Data Type 26
  2.8062500000000004,                     !- Feature Value 26
  EPWDesignCoolingDrybulb,                !- Feature Name 27
  Double,                                 !- Feature Data Type 27
  91.939999999999998,                     !- Feature Value 27
  EPWDesignCoolingWetbulb,                !- Feature Name 28
  Double,                                 !- Feature Data Type 28
  59.95131430195849,                      !- Feature Value 28
  EPWDesignCoolingHumidityRatio,          !- Feature Name 29
  Double,                                 !- Feature Data Type 29
  0.0059161086834698092,                  !- Feature Value 29
  EPWDesignCoolingWindspeed,              !- Feature Name 30
  Double,                                 !- Feature Data Type 30
  3.7999999999999989,                     !- Feature Value 30
  EPWDesignDailyTemperatureRange,         !- Feature Name 31
  Double,                                 !- Feature Data Type 31
  24.915483870967748,                     !- Feature Value 31
  EPWDesignDehumidDrybulb,                !- Feature Name 32
  Double,                                 !- Feature Data Type 32
  67.996785714285721,                     !- Feature Value 32
  EPWDesignDehumidHumidityRatio,          !- Feature Name 33
  Double,                                 !- Feature Data Type 33
  0.012133744170488724,                   !- Feature Value 33
  EPWDesignCoolingDirectNormal,           !- Feature Name 34
  Double,                                 !- Feature Data Type 34
  985,                                    !- Feature Value 34
  EPWDesignCoolingDiffuseHorizontal,      !- Feature Name 35
  Double,                                 !- Feature Data Type 35
  84;                                     !- Feature Value 35

OS:Site,
<<<<<<< HEAD
<<<<<<< HEAD
  {fef2ac8a-938c-451e-a9c9-c5bb7e2a4bae}, !- Handle
=======
  {b8d53677-8cdd-4ca8-8c6c-69a2e0bd7735}, !- Handle
>>>>>>> develop
=======
  {f7317013-cf74-4160-b9ae-34397329a39f}, !- Handle
>>>>>>> develop
  Denver Intl Ap_CO_USA,                  !- Name
  39.83,                                  !- Latitude {deg}
  -104.65,                                !- Longitude {deg}
  -7,                                     !- Time Zone {hr}
  1650,                                   !- Elevation {m}
  ;                                       !- Terrain

OS:ClimateZones,
<<<<<<< HEAD
<<<<<<< HEAD
  {f9cb201e-bdf6-4e08-a58b-03b58e59cb22}, !- Handle
  ,                                       !- Active Institution
  ,                                       !- Active Year
  ,                                       !- Climate Zone Institution Name 1
=======
  {1cb52bd0-dc13-473f-9718-2bb7914c0615}, !- Handle
=======
  {646c8f0a-f074-4906-98b9-7e2f89fc780f}, !- Handle
>>>>>>> develop
  Building America,                       !- Climate Zone Institution Name 1
>>>>>>> develop
  ,                                       !- Climate Zone Document Name 1
  0,                                      !- Climate Zone Document Year 1
  Cold;                                   !- Climate Zone Value 1

OS:Site:WaterMainsTemperature,
<<<<<<< HEAD
<<<<<<< HEAD
  {e1600006-f37f-4d16-bd8b-c33d37ec60b2}, !- Handle
=======
  {be53f63d-d381-486f-8ca2-9a2760eb0d5a}, !- Handle
>>>>>>> develop
=======
  {27f73818-5c81-4729-922a-06da675fa48f}, !- Handle
>>>>>>> develop
  Correlation,                            !- Calculation Method
  ,                                       !- Temperature Schedule Name
  10.8753424657535,                       !- Annual Average Outdoor Air Temperature {C}
  23.1524007936508;                       !- Maximum Difference In Monthly Average Outdoor Air Temperatures {deltaC}

OS:RunPeriodControl:DaylightSavingTime,
<<<<<<< HEAD
<<<<<<< HEAD
  {78a95039-44eb-4c14-a874-7a37b59d88c1}, !- Handle
=======
  {407b98ce-2d9a-4975-a74c-1e62bb8ff82f}, !- Handle
>>>>>>> develop
=======
  {044af85e-169d-4840-b717-8c189167950e}, !- Handle
>>>>>>> develop
  3/12,                                   !- Start Date
  11/5;                                   !- End Date

OS:Site:GroundTemperature:Deep,
<<<<<<< HEAD
<<<<<<< HEAD
  {b83ec3c7-1280-4570-a6cf-55577a5840d1}, !- Handle
=======
  {1861067b-72ff-415c-a8da-bde2c13f4e54}, !- Handle
>>>>>>> develop
=======
  {1ed595fe-901b-4dcb-8164-7c646f442cc2}, !- Handle
>>>>>>> develop
  10.8753424657535,                       !- January Deep Ground Temperature {C}
  10.8753424657535,                       !- February Deep Ground Temperature {C}
  10.8753424657535,                       !- March Deep Ground Temperature {C}
  10.8753424657535,                       !- April Deep Ground Temperature {C}
  10.8753424657535,                       !- May Deep Ground Temperature {C}
  10.8753424657535,                       !- June Deep Ground Temperature {C}
  10.8753424657535,                       !- July Deep Ground Temperature {C}
  10.8753424657535,                       !- August Deep Ground Temperature {C}
  10.8753424657535,                       !- September Deep Ground Temperature {C}
  10.8753424657535,                       !- October Deep Ground Temperature {C}
  10.8753424657535,                       !- November Deep Ground Temperature {C}
  10.8753424657535;                       !- December Deep Ground Temperature {C}

OS:Building,
<<<<<<< HEAD
<<<<<<< HEAD
  {f936146d-17e9-4f58-8745-bd102b723a06}, !- Handle
=======
  {19aa8f9a-08b9-4dce-9c15-601ef7eabb8e}, !- Handle
>>>>>>> develop
=======
  {ec206cc3-aedd-493e-9130-aae519ed6378}, !- Handle
>>>>>>> develop
  Building 1,                             !- Name
  ,                                       !- Building Sector Type
  0,                                      !- North Axis {deg}
  ,                                       !- Nominal Floor to Floor Height {m}
  ,                                       !- Space Type Name
  ,                                       !- Default Construction Set Name
  ,                                       !- Default Schedule Set Name
  2,                                      !- Standards Number of Stories
  2,                                      !- Standards Number of Above Ground Stories
  ,                                       !- Standards Template
  singlefamilyattached,                   !- Standards Building Type
  10;                                     !- Standards Number of Living Units

OS:AdditionalProperties,
<<<<<<< HEAD
<<<<<<< HEAD
  {c5f2ab80-2e86-4195-bd94-e519a2f8b839}, !- Handle
  {f936146d-17e9-4f58-8745-bd102b723a06}, !- Object Name
=======
  {75abe325-5027-4ab6-a7f8-f9d8468a9dd3}, !- Handle
  {19aa8f9a-08b9-4dce-9c15-601ef7eabb8e}, !- Object Name
>>>>>>> develop
=======
  {a84f7eb3-2177-44cd-9336-2158966ac8ae}, !- Handle
  {ec206cc3-aedd-493e-9130-aae519ed6378}, !- Object Name
>>>>>>> develop
  num_units,                              !- Feature Name 1
  Integer,                                !- Feature Data Type 1
  10,                                     !- Feature Value 1
  has_rear_units,                         !- Feature Name 2
  Boolean,                                !- Feature Data Type 2
  false,                                  !- Feature Value 2
  horz_location,                          !- Feature Name 3
  String,                                 !- Feature Data Type 3
  Left,                                   !- Feature Value 3
  num_floors,                             !- Feature Name 4
  Integer,                                !- Feature Data Type 4
  2;                                      !- Feature Value 4

OS:ThermalZone,
<<<<<<< HEAD
<<<<<<< HEAD
  {664466fa-f318-4015-8f6b-e3a7b1abf889}, !- Handle
=======
  {484d72f7-6d30-4fc1-a453-5d2f0d38e9a4}, !- Handle
>>>>>>> develop
=======
  {b91dcf1a-5339-4f30-82c7-ce1bab4e5f94}, !- Handle
>>>>>>> develop
  living zone,                            !- Name
  ,                                       !- Multiplier
  ,                                       !- Ceiling Height {m}
  ,                                       !- Volume {m3}
  ,                                       !- Floor Area {m2}
  ,                                       !- Zone Inside Convection Algorithm
  ,                                       !- Zone Outside Convection Algorithm
  ,                                       !- Zone Conditioning Equipment List Name
<<<<<<< HEAD
<<<<<<< HEAD
  {b56c5fe2-d820-49b9-a634-3af8c965ff49}, !- Zone Air Inlet Port List
  {6f0e4f9b-8f33-42c4-a497-a15428f23eb7}, !- Zone Air Exhaust Port List
  {41f574a4-d284-431b-87c7-0c0648c875ce}, !- Zone Air Node Name
  {32b00170-694d-4872-97a7-82927c0cccad}, !- Zone Return Air Port List
=======
  {ab302e71-1155-4c93-bb52-9b05352e6dfe}, !- Zone Air Inlet Port List
  {54e3d1b1-6f5c-4e8e-8a24-84d319c67b43}, !- Zone Air Exhaust Port List
  {34938b1c-86d6-477d-aaf5-ccd4ce208f37}, !- Zone Air Node Name
  {9c51a273-4035-49f4-bcb0-b7a04f57c496}, !- Zone Return Air Port List
>>>>>>> develop
=======
  {96646bed-b421-4cf5-8fbd-a9153c1a16b5}, !- Zone Air Inlet Port List
  {6ee17da2-f1a5-4c65-917c-f1ec97d7f450}, !- Zone Air Exhaust Port List
  {47aaf2c7-b8e5-41bb-948f-c46f3b809126}, !- Zone Air Node Name
  {f91b5514-6a67-4cae-873a-61bbe3ac3809}, !- Zone Return Air Port List
>>>>>>> develop
  ,                                       !- Primary Daylighting Control Name
  ,                                       !- Fraction of Zone Controlled by Primary Daylighting Control
  ,                                       !- Secondary Daylighting Control Name
  ,                                       !- Fraction of Zone Controlled by Secondary Daylighting Control
  ,                                       !- Illuminance Map Name
  ,                                       !- Group Rendering Name
  ,                                       !- Thermostat Name
  No;                                     !- Use Ideal Air Loads

OS:Node,
<<<<<<< HEAD
<<<<<<< HEAD
  {f585e7fc-21af-45f8-8d0a-16cbcd604dae}, !- Handle
  Node 1,                                 !- Name
  {41f574a4-d284-431b-87c7-0c0648c875ce}, !- Inlet Port
  ;                                       !- Outlet Port

OS:Connection,
  {41f574a4-d284-431b-87c7-0c0648c875ce}, !- Handle
  {cf71e653-a04f-461d-995f-57daf84d0e86}, !- Name
  {664466fa-f318-4015-8f6b-e3a7b1abf889}, !- Source Object
  11,                                     !- Outlet Port
  {f585e7fc-21af-45f8-8d0a-16cbcd604dae}, !- Target Object
  2;                                      !- Inlet Port

OS:PortList,
  {b56c5fe2-d820-49b9-a634-3af8c965ff49}, !- Handle
  {be705f6a-e5c6-4e2e-acff-a355710bb307}, !- Name
  {664466fa-f318-4015-8f6b-e3a7b1abf889}; !- HVAC Component

OS:PortList,
  {6f0e4f9b-8f33-42c4-a497-a15428f23eb7}, !- Handle
  {2bac28ef-53fa-45fa-8fda-898a55036a4a}, !- Name
  {664466fa-f318-4015-8f6b-e3a7b1abf889}; !- HVAC Component

OS:PortList,
  {32b00170-694d-4872-97a7-82927c0cccad}, !- Handle
  {28b2d4dd-801a-489e-b6e3-8f0e585a955d}, !- Name
  {664466fa-f318-4015-8f6b-e3a7b1abf889}; !- HVAC Component

OS:Sizing:Zone,
  {2d6bb9ca-3ea2-4737-8d3c-4118cc2634de}, !- Handle
  {664466fa-f318-4015-8f6b-e3a7b1abf889}, !- Zone or ZoneList Name
=======
  {1699dbe2-ac62-458b-abb4-1ca08f1b7b1e}, !- Handle
=======
  {8916892b-3862-4a58-9ee5-8c7707860910}, !- Handle
>>>>>>> develop
  Node 1,                                 !- Name
  {47aaf2c7-b8e5-41bb-948f-c46f3b809126}, !- Inlet Port
  ;                                       !- Outlet Port

OS:Connection,
  {47aaf2c7-b8e5-41bb-948f-c46f3b809126}, !- Handle
  {b91dcf1a-5339-4f30-82c7-ce1bab4e5f94}, !- Source Object
  11,                                     !- Outlet Port
  {8916892b-3862-4a58-9ee5-8c7707860910}, !- Target Object
  2;                                      !- Inlet Port

OS:PortList,
  {96646bed-b421-4cf5-8fbd-a9153c1a16b5}, !- Handle
  {b91dcf1a-5339-4f30-82c7-ce1bab4e5f94}; !- HVAC Component

OS:PortList,
  {6ee17da2-f1a5-4c65-917c-f1ec97d7f450}, !- Handle
  {b91dcf1a-5339-4f30-82c7-ce1bab4e5f94}; !- HVAC Component

OS:PortList,
  {f91b5514-6a67-4cae-873a-61bbe3ac3809}, !- Handle
  {b91dcf1a-5339-4f30-82c7-ce1bab4e5f94}; !- HVAC Component

OS:Sizing:Zone,
<<<<<<< HEAD
  {34cb0966-b6ef-411d-80c9-07b2746d6cda}, !- Handle
  {484d72f7-6d30-4fc1-a453-5d2f0d38e9a4}, !- Zone or ZoneList Name
>>>>>>> develop
=======
  {19bec734-758c-45ae-bfef-88deae31bfe3}, !- Handle
  {b91dcf1a-5339-4f30-82c7-ce1bab4e5f94}, !- Zone or ZoneList Name
>>>>>>> develop
  SupplyAirTemperature,                   !- Zone Cooling Design Supply Air Temperature Input Method
  14,                                     !- Zone Cooling Design Supply Air Temperature {C}
  11.11,                                  !- Zone Cooling Design Supply Air Temperature Difference {deltaC}
  SupplyAirTemperature,                   !- Zone Heating Design Supply Air Temperature Input Method
  40,                                     !- Zone Heating Design Supply Air Temperature {C}
  11.11,                                  !- Zone Heating Design Supply Air Temperature Difference {deltaC}
  0.0085,                                 !- Zone Cooling Design Supply Air Humidity Ratio {kg-H2O/kg-air}
  0.008,                                  !- Zone Heating Design Supply Air Humidity Ratio {kg-H2O/kg-air}
  ,                                       !- Zone Heating Sizing Factor
  ,                                       !- Zone Cooling Sizing Factor
  DesignDay,                              !- Cooling Design Air Flow Method
  ,                                       !- Cooling Design Air Flow Rate {m3/s}
  ,                                       !- Cooling Minimum Air Flow per Zone Floor Area {m3/s-m2}
  ,                                       !- Cooling Minimum Air Flow {m3/s}
  ,                                       !- Cooling Minimum Air Flow Fraction
  DesignDay,                              !- Heating Design Air Flow Method
  ,                                       !- Heating Design Air Flow Rate {m3/s}
  ,                                       !- Heating Maximum Air Flow per Zone Floor Area {m3/s-m2}
  ,                                       !- Heating Maximum Air Flow {m3/s}
  ,                                       !- Heating Maximum Air Flow Fraction
  No,                                     !- Account for Dedicated Outdoor Air System
  NeutralSupplyAir,                       !- Dedicated Outdoor Air System Control Strategy
  autosize,                               !- Dedicated Outdoor Air Low Setpoint Temperature for Design {C}
  autosize;                               !- Dedicated Outdoor Air High Setpoint Temperature for Design {C}

OS:ZoneHVAC:EquipmentList,
<<<<<<< HEAD
<<<<<<< HEAD
  {43b52c7a-71ef-4ed5-a9b7-7845a36cbd55}, !- Handle
  Zone HVAC Equipment List 1,             !- Name
  {664466fa-f318-4015-8f6b-e3a7b1abf889}; !- Thermal Zone

OS:Space,
  {3339c620-24fc-4116-aa74-ca1ab6cba622}, !- Handle
  living space,                           !- Name
  {6b751a6b-949a-4fb8-8804-f1b7527d1777}, !- Space Type Name
=======
  {cc3ba741-67ad-46a6-975b-419856531016}, !- Handle
=======
  {83a4864a-b4c6-4d5a-9b7d-7611beaa5e72}, !- Handle
>>>>>>> develop
  Zone HVAC Equipment List 1,             !- Name
  {b91dcf1a-5339-4f30-82c7-ce1bab4e5f94}; !- Thermal Zone

OS:Space,
  {ffa38227-8a7e-4a20-977b-a21621249266}, !- Handle
  living space,                           !- Name
<<<<<<< HEAD
  {593a4de1-1b83-4b9a-b1ed-4d816b9011e1}, !- Space Type Name
>>>>>>> develop
=======
  {aaf8c5c8-2d8f-4b6b-82f6-1da4264ec329}, !- Space Type Name
>>>>>>> develop
  ,                                       !- Default Construction Set Name
  ,                                       !- Default Schedule Set Name
  ,                                       !- Direction of Relative North {deg}
  ,                                       !- X Origin {m}
  ,                                       !- Y Origin {m}
  ,                                       !- Z Origin {m}
  ,                                       !- Building Story Name
<<<<<<< HEAD
<<<<<<< HEAD
  {664466fa-f318-4015-8f6b-e3a7b1abf889}, !- Thermal Zone Name
  ,                                       !- Part of Total Floor Area
  ,                                       !- Design Specification Outdoor Air Object Name
  {fd0f0c34-265a-49ff-9630-9a2ee875e6bf}; !- Building Unit Name

OS:Surface,
  {18644201-96f1-4645-864a-d30772af976c}, !- Handle
  Surface 1,                              !- Name
  Floor,                                  !- Surface Type
  ,                                       !- Construction Name
  {3339c620-24fc-4116-aa74-ca1ab6cba622}, !- Space Name
  Surface,                                !- Outside Boundary Condition
  {dc74bd9e-8cb0-491c-a03f-746c3d815ab1}, !- Outside Boundary Condition Object
=======
  {484d72f7-6d30-4fc1-a453-5d2f0d38e9a4}, !- Thermal Zone Name
=======
  {b91dcf1a-5339-4f30-82c7-ce1bab4e5f94}, !- Thermal Zone Name
>>>>>>> develop
  ,                                       !- Part of Total Floor Area
  ,                                       !- Design Specification Outdoor Air Object Name
  {695c6463-6e5a-4d97-a451-a94a90cbc2ff}; !- Building Unit Name

OS:Surface,
  {9985f8b3-846c-4268-9ce5-631f4c379163}, !- Handle
  Surface 1,                              !- Name
  Floor,                                  !- Surface Type
  ,                                       !- Construction Name
  {ffa38227-8a7e-4a20-977b-a21621249266}, !- Space Name
  Surface,                                !- Outside Boundary Condition
<<<<<<< HEAD
  {01cce064-8941-484c-9877-4ba16dbf4499}, !- Outside Boundary Condition Object
>>>>>>> develop
=======
  {83aaf403-99d4-4401-84dc-ba5d3680c5a1}, !- Outside Boundary Condition Object
>>>>>>> develop
  NoSun,                                  !- Sun Exposure
  NoWind,                                 !- Wind Exposure