!- NOTE: Auto-generated from /test/osw_files/SFA_4units_1story_SL_UA_3Beds_2Baths_Denver_Central_System_PTAC_NoSetpoints.osw

OS:Version,
  {e2b59176-6019-45c5-8fcf-a6ecb835adc3}, !- Handle
  3.2.1;                                  !- Version Identifier

OS:SimulationControl,
  {46be2b5e-a846-43c8-8270-990c60567fcf}, !- Handle
  ,                                       !- Do Zone Sizing Calculation
  ,                                       !- Do System Sizing Calculation
  ,                                       !- Do Plant Sizing Calculation
  Yes;                                    !- Run Simulation for Sizing Periods

OS:Timestep,
  {2b98a01c-a55b-406e-b6f2-9450aa96e025}, !- Handle
  6;                                      !- Number of Timesteps per Hour

OS:ShadowCalculation,
  {dca9883c-ad97-4265-9499-9089bf3a4e61}, !- Handle
  PolygonClipping,                        !- Shading Calculation Method
  ,                                       !- Shading Calculation Update Frequency Method
  20,                                     !- Shading Calculation Update Frequency
  200,                                    !- Maximum Figures in Shadow Overlap Calculations
  ,                                       !- Polygon Clipping Algorithm
  512,                                    !- Pixel Counting Resolution
  DetailedSkyDiffuseModeling,             !- Sky Diffuse Modeling Algorithm
  No,                                     !- Output External Shading Calculation Results
  No,                                     !- Disable Self-Shading Within Shading Zone Groups
  No;                                     !- Disable Self-Shading From Shading Zone Groups to Other Zones

OS:SurfaceConvectionAlgorithm:Outside,
  {6802b27a-0afe-48b4-af5f-caff3afb4a43}, !- Handle
  DOE-2;                                  !- Algorithm

OS:SurfaceConvectionAlgorithm:Inside,
  {3c9e8146-8557-4218-9de6-c369309ea58b}, !- Handle
  TARP;                                   !- Algorithm

OS:ZoneCapacitanceMultiplier:ResearchSpecial,
  {54dad282-f811-4eb4-9ca0-f187b26eef22}, !- Handle
  ,                                       !- Temperature Capacity Multiplier
  15,                                     !- Humidity Capacity Multiplier
  ;                                       !- Carbon Dioxide Capacity Multiplier

OS:RunPeriod,
  {1afa18d0-4654-4c91-9679-0f8d4cb310a4}, !- Handle
  Run Period 1,                           !- Name
  1,                                      !- Begin Month
  1,                                      !- Begin Day of Month
  12,                                     !- End Month
  31,                                     !- End Day of Month
  ,                                       !- Use Weather File Holidays and Special Days
  ,                                       !- Use Weather File Daylight Saving Period
  ,                                       !- Apply Weekend Holiday Rule
  ,                                       !- Use Weather File Rain Indicators
  ,                                       !- Use Weather File Snow Indicators
  ;                                       !- Number of Times Runperiod to be Repeated

OS:YearDescription,
  {e55a7cce-54f3-4e2b-9ad6-4c4fb8ba8db7}, !- Handle
  2007,                                   !- Calendar Year
  ,                                       !- Day of Week for Start Day
  ;                                       !- Is Leap Year

OS:Building,
  {b614e7ea-d877-4e75-854c-04caa99a5575}, !- Handle
  Building 1,                             !- Name
  ,                                       !- Building Sector Type
  0,                                      !- North Axis {deg}
  ,                                       !- Nominal Floor to Floor Height {m}
  ,                                       !- Space Type Name
  ,                                       !- Default Construction Set Name
  ,                                       !- Default Schedule Set Name
  1,                                      !- Standards Number of Stories
  1,                                      !- Standards Number of Above Ground Stories
  ,                                       !- Standards Template
  singlefamilyattached,                   !- Standards Building Type
  4;                                      !- Standards Number of Living Units

OS:AdditionalProperties,
  {b3bbbd22-5896-4676-8613-3079c3bd7f82}, !- Handle
  {b614e7ea-d877-4e75-854c-04caa99a5575}, !- Object Name
  num_units,                              !- Feature Name 1
  Integer,                                !- Feature Data Type 1
  4,                                      !- Feature Value 1
  has_rear_units,                         !- Feature Name 2
  Boolean,                                !- Feature Data Type 2
  false,                                  !- Feature Value 2
  horz_location,                          !- Feature Name 3
  String,                                 !- Feature Data Type 3
  Left,                                   !- Feature Value 3
  num_floors,                             !- Feature Name 4
  Integer,                                !- Feature Data Type 4
  1,                                      !- Feature Value 4
  has_hvac_flue,                          !- Feature Name 5
  Boolean,                                !- Feature Data Type 5
  true;                                   !- Feature Value 5

OS:ThermalZone,
  {b0ff4a45-e94c-4519-a694-8a29cde1e716}, !- Handle
  living zone,                            !- Name
  ,                                       !- Multiplier
  ,                                       !- Ceiling Height {m}
  ,                                       !- Volume {m3}
  ,                                       !- Floor Area {m2}
  ,                                       !- Zone Inside Convection Algorithm
  ,                                       !- Zone Outside Convection Algorithm
  ,                                       !- Zone Conditioning Equipment List Name
  {4f6c882f-bfc4-4e3c-97e6-478b5fdf1a38}, !- Zone Air Inlet Port List
  {4465f45b-29de-4dc7-b219-088868a1c8d9}, !- Zone Air Exhaust Port List
  {5847c1b0-be63-412e-8fcc-da8c1aac8aa1}, !- Zone Air Node Name
  {04b50b99-8755-4dae-8427-115293b287b2}, !- Zone Return Air Port List
  ,                                       !- Primary Daylighting Control Name
  ,                                       !- Fraction of Zone Controlled by Primary Daylighting Control
  ,                                       !- Secondary Daylighting Control Name
  ,                                       !- Fraction of Zone Controlled by Secondary Daylighting Control
  ,                                       !- Illuminance Map Name
  ,                                       !- Group Rendering Name
  ,                                       !- Thermostat Name
  No;                                     !- Use Ideal Air Loads

OS:Node,
  {ff122671-c51c-4bce-9660-5e8139aaa826}, !- Handle
  Node 1,                                 !- Name
  {5847c1b0-be63-412e-8fcc-da8c1aac8aa1}, !- Inlet Port
  ;                                       !- Outlet Port

OS:Connection,
  {5847c1b0-be63-412e-8fcc-da8c1aac8aa1}, !- Handle
  {b0ff4a45-e94c-4519-a694-8a29cde1e716}, !- Source Object
  11,                                     !- Outlet Port
  {ff122671-c51c-4bce-9660-5e8139aaa826}, !- Target Object
  2;                                      !- Inlet Port

OS:PortList,
  {4f6c882f-bfc4-4e3c-97e6-478b5fdf1a38}, !- Handle
  {b0ff4a45-e94c-4519-a694-8a29cde1e716}, !- HVAC Component
  {93ae8c98-cd28-4d41-ae21-fba29d59f18e}; !- Port 1

OS:PortList,
  {4465f45b-29de-4dc7-b219-088868a1c8d9}, !- Handle
  {b0ff4a45-e94c-4519-a694-8a29cde1e716}, !- HVAC Component
  {a7f0e49c-263a-440e-9f5f-87015fea86bc}; !- Port 1

OS:PortList,
  {04b50b99-8755-4dae-8427-115293b287b2}, !- Handle
  {b0ff4a45-e94c-4519-a694-8a29cde1e716}; !- HVAC Component

OS:Sizing:Zone,
  {f8d085f3-886c-4fe2-b4f9-b7125e92b16e}, !- Handle
  {b0ff4a45-e94c-4519-a694-8a29cde1e716}, !- Zone or ZoneList Name
  SupplyAirTemperature,                   !- Zone Cooling Design Supply Air Temperature Input Method
  13.8888888888889,                       !- Zone Cooling Design Supply Air Temperature {C}
  11.11,                                  !- Zone Cooling Design Supply Air Temperature Difference {deltaC}
  SupplyAirTemperature,                   !- Zone Heating Design Supply Air Temperature Input Method
  50.0000000000001,                       !- Zone Heating Design Supply Air Temperature {C}
  11.11,                                  !- Zone Heating Design Supply Air Temperature Difference {deltaC}
  0.008,                                  !- Zone Cooling Design Supply Air Humidity Ratio {kg-H2O/kg-air}
  0.008,                                  !- Zone Heating Design Supply Air Humidity Ratio {kg-H2O/kg-air}
  ,                                       !- Zone Heating Sizing Factor
  ,                                       !- Zone Cooling Sizing Factor
  DesignDay,                              !- Cooling Design Air Flow Method
  ,                                       !- Cooling Design Air Flow Rate {m3/s}
  ,                                       !- Cooling Minimum Air Flow per Zone Floor Area {m3/s-m2}
  ,                                       !- Cooling Minimum Air Flow {m3/s}
  ,                                       !- Cooling Minimum Air Flow Fraction
  DesignDay,                              !- Heating Design Air Flow Method
  ,                                       !- Heating Design Air Flow Rate {m3/s}
  ,                                       !- Heating Maximum Air Flow per Zone Floor Area {m3/s-m2}
  ,                                       !- Heating Maximum Air Flow {m3/s}
  ,                                       !- Heating Maximum Air Flow Fraction
  No,                                     !- Account for Dedicated Outdoor Air System
  NeutralSupplyAir,                       !- Dedicated Outdoor Air System Control Strategy
  autosize,                               !- Dedicated Outdoor Air Low Setpoint Temperature for Design {C}
  autosize;                               !- Dedicated Outdoor Air High Setpoint Temperature for Design {C}

OS:ZoneHVAC:EquipmentList,
  {65f296c2-b519-4720-ad1c-1008c99de96b}, !- Handle
  Zone HVAC Equipment List 1,             !- Name
  {b0ff4a45-e94c-4519-a694-8a29cde1e716}, !- Thermal Zone
  ,                                       !- Load Distribution Scheme
  {8aaef6b0-4a34-4435-8e14-581d3aabab1b}, !- Zone Equipment 1
  1,                                      !- Zone Equipment Cooling Sequence 1
  1,                                      !- Zone Equipment Heating or No-Load Sequence 1
  ,                                       !- Zone Equipment Sequential Cooling Fraction Schedule Name 1
  ;                                       !- Zone Equipment Sequential Heating Fraction Schedule Name 1

OS:Space,
  {5b7c740d-800c-4a45-8f88-f4adeceef7b4}, !- Handle
  living space,                           !- Name
  {c5eee087-3dc1-4dad-91f9-71988a7ad402}, !- Space Type Name
  ,                                       !- Default Construction Set Name
  ,                                       !- Default Schedule Set Name
  ,                                       !- Direction of Relative North {deg}
  ,                                       !- X Origin {m}
  ,                                       !- Y Origin {m}
  ,                                       !- Z Origin {m}
  ,                                       !- Building Story Name
  {b0ff4a45-e94c-4519-a694-8a29cde1e716}, !- Thermal Zone Name
  ,                                       !- Part of Total Floor Area
  ,                                       !- Design Specification Outdoor Air Object Name
  {752cb657-aaaa-4e24-8be6-a5223d8ae6b1}; !- Building Unit Name

OS:Surface,
  {c9d9b30e-90a4-42a8-9baf-4269fcf93c45}, !- Handle
  Surface 1,                              !- Name
  Floor,                                  !- Surface Type
  ,                                       !- Construction Name
  {5b7c740d-800c-4a45-8f88-f4adeceef7b4}, !- Space Name
  Foundation,                             !- Outside Boundary Condition
  ,                                       !- Outside Boundary Condition Object
  NoSun,                                  !- Sun Exposure
  NoWind,                                 !- Wind Exposure
  ,                                       !- View Factor to Ground
  ,                                       !- Number of Vertices
  0, -12.9315688143396, 0,                !- X,Y,Z Vertex 1 {m}
  0, 0, 0,                                !- X,Y,Z Vertex 2 {m}
  6.46578440716979, 0, 0,                 !- X,Y,Z Vertex 3 {m}
  6.46578440716979, -12.9315688143396, 0; !- X,Y,Z Vertex 4 {m}

OS:Surface,
  {47b7c6aa-58c4-4c77-9d4f-0bfb1d109bb1}, !- Handle
  Surface 2,                              !- Name
  Wall,                                   !- Surface Type
  ,                                       !- Construction Name
  {5b7c740d-800c-4a45-8f88-f4adeceef7b4}, !- Space Name
  Outdoors,                               !- Outside Boundary Condition
  ,                                       !- Outside Boundary Condition Object
  SunExposed,                             !- Sun Exposure
  WindExposed,                            !- Wind Exposure
  ,                                       !- View Factor to Ground
  ,                                       !- Number of Vertices
  0, 0, 2.4384,                           !- X,Y,Z Vertex 1 {m}
  0, 0, 0,                                !- X,Y,Z Vertex 2 {m}
  0, -12.9315688143396, 0,                !- X,Y,Z Vertex 3 {m}
  0, -12.9315688143396, 2.4384;           !- X,Y,Z Vertex 4 {m}

OS:Surface,
  {03dea260-13a7-4075-942e-ad74b941146c}, !- Handle
  Surface 3,                              !- Name
  Wall,                                   !- Surface Type
  ,                                       !- Construction Name
  {5b7c740d-800c-4a45-8f88-f4adeceef7b4}, !- Space Name
  Outdoors,                               !- Outside Boundary Condition
  ,                                       !- Outside Boundary Condition Object
  SunExposed,                             !- Sun Exposure
  WindExposed,                            !- Wind Exposure
  ,                                       !- View Factor to Ground
  ,                                       !- Number of Vertices
  6.46578440716979, 0, 2.4384,            !- X,Y,Z Vertex 1 {m}
  6.46578440716979, 0, 0,                 !- X,Y,Z Vertex 2 {m}
  0, 0, 0,                                !- X,Y,Z Vertex 3 {m}
  0, 0, 2.4384;                           !- X,Y,Z Vertex 4 {m}

OS:Surface,
  {06149b00-33ab-4ef0-ad41-c4b34a8d4e1b}, !- Handle
  Surface 4,                              !- Name
  Wall,                                   !- Surface Type
  ,                                       !- Construction Name
  {5b7c740d-800c-4a45-8f88-f4adeceef7b4}, !- Space Name
  Adiabatic,                              !- Outside Boundary Condition
  ,                                       !- Outside Boundary Condition Object
  NoSun,                                  !- Sun Exposure
  NoWind,                                 !- Wind Exposure
  ,                                       !- View Factor to Ground
  ,                                       !- Number of Vertices
  6.46578440716979, -12.9315688143396, 2.4384, !- X,Y,Z Vertex 1 {m}
  6.46578440716979, -12.9315688143396, 0, !- X,Y,Z Vertex 2 {m}
  6.46578440716979, 0, 0,                 !- X,Y,Z Vertex 3 {m}
  6.46578440716979, 0, 2.4384;            !- X,Y,Z Vertex 4 {m}

OS:Surface,
  {1beb0491-32d8-4ecd-bd4f-41a884220ef0}, !- Handle
  Surface 5,                              !- Name
  Wall,                                   !- Surface Type
  ,                                       !- Construction Name
  {5b7c740d-800c-4a45-8f88-f4adeceef7b4}, !- Space Name
  Outdoors,                               !- Outside Boundary Condition
  ,                                       !- Outside Boundary Condition Object
  SunExposed,                             !- Sun Exposure
  WindExposed,                            !- Wind Exposure
  ,                                       !- View Factor to Ground
  ,                                       !- Number of Vertices
  0, -12.9315688143396, 2.4384,           !- X,Y,Z Vertex 1 {m}
  0, -12.9315688143396, 0,                !- X,Y,Z Vertex 2 {m}
  6.46578440716979, -12.9315688143396, 0, !- X,Y,Z Vertex 3 {m}
  6.46578440716979, -12.9315688143396, 2.4384; !- X,Y,Z Vertex 4 {m}

OS:Surface,
  {9d32a21d-ab0c-4cf5-ac17-f3cc8eb01b32}, !- Handle
  Surface 6,                              !- Name
  RoofCeiling,                            !- Surface Type
  ,                                       !- Construction Name
  {5b7c740d-800c-4a45-8f88-f4adeceef7b4}, !- Space Name
  Surface,                                !- Outside Boundary Condition
  {af51619e-1970-4e1c-a80e-1d795b3cfaa4}, !- Outside Boundary Condition Object
  NoSun,                                  !- Sun Exposure
  NoWind,                                 !- Wind Exposure
  ,                                       !- View Factor to Ground
  ,                                       !- Number of Vertices
  6.46578440716979, -12.9315688143396, 2.4384, !- X,Y,Z Vertex 1 {m}
  6.46578440716979, 0, 2.4384,            !- X,Y,Z Vertex 2 {m}
  0, 0, 2.4384,                           !- X,Y,Z Vertex 3 {m}
  0, -12.9315688143396, 2.4384;           !- X,Y,Z Vertex 4 {m}

OS:SpaceType,
  {c5eee087-3dc1-4dad-91f9-71988a7ad402}, !- Handle
  Space Type 1,                           !- Name
  ,                                       !- Default Construction Set Name
  ,                                       !- Default Schedule Set Name
  ,                                       !- Group Rendering Name
  ,                                       !- Design Specification Outdoor Air Object Name
  ,                                       !- Standards Template
  ,                                       !- Standards Building Type
  living;                                 !- Standards Space Type

OS:Surface,
  {af51619e-1970-4e1c-a80e-1d795b3cfaa4}, !- Handle
  Surface 7,                              !- Name
  Floor,                                  !- Surface Type
  ,                                       !- Construction Name
  {2aa7e7f7-38a2-41de-96b7-07a5d365c09c}, !- Space Name
  Surface,                                !- Outside Boundary Condition
  {9d32a21d-ab0c-4cf5-ac17-f3cc8eb01b32}, !- Outside Boundary Condition Object
  NoSun,                                  !- Sun Exposure
  NoWind,                                 !- Wind Exposure
  ,                                       !- View Factor to Ground
  ,                                       !- Number of Vertices
  0, -12.9315688143396, 2.4384,           !- X,Y,Z Vertex 1 {m}
  0, 0, 2.4384,                           !- X,Y,Z Vertex 2 {m}
  6.46578440716979, 0, 2.4384,            !- X,Y,Z Vertex 3 {m}
  6.46578440716979, -12.9315688143396, 2.4384; !- X,Y,Z Vertex 4 {m}

OS:Surface,
  {fa6f07a5-daa7-45e9-a96a-b8e830e6416d}, !- Handle
  Surface 8,                              !- Name
  RoofCeiling,                            !- Surface Type
  ,                                       !- Construction Name
  {2aa7e7f7-38a2-41de-96b7-07a5d365c09c}, !- Space Name
  Outdoors,                               !- Outside Boundary Condition
  ,                                       !- Outside Boundary Condition Object
  SunExposed,                             !- Sun Exposure
  WindExposed,                            !- Wind Exposure
  ,                                       !- View Factor to Ground
  ,                                       !- Number of Vertices
  0, -6.46578440716979, 5.6712922035849,  !- X,Y,Z Vertex 1 {m}
  6.46578440716979, -6.46578440716979, 5.6712922035849, !- X,Y,Z Vertex 2 {m}
  6.46578440716979, 0, 2.4384,            !- X,Y,Z Vertex 3 {m}
  0, 0, 2.4384;                           !- X,Y,Z Vertex 4 {m}

OS:Surface,
  {0e2eadb5-4673-49f1-8adf-922e2530d6d8}, !- Handle
  Surface 9,                              !- Name
  RoofCeiling,                            !- Surface Type
  ,                                       !- Construction Name
  {2aa7e7f7-38a2-41de-96b7-07a5d365c09c}, !- Space Name
  Outdoors,                               !- Outside Boundary Condition
  ,                                       !- Outside Boundary Condition Object
  SunExposed,                             !- Sun Exposure
  WindExposed,                            !- Wind Exposure
  ,                                       !- View Factor to Ground
  ,                                       !- Number of Vertices
  6.46578440716979, -6.46578440716979, 5.6712922035849, !- X,Y,Z Vertex 1 {m}
  0, -6.46578440716979, 5.6712922035849,  !- X,Y,Z Vertex 2 {m}
  0, -12.9315688143396, 2.4384,           !- X,Y,Z Vertex 3 {m}
  6.46578440716979, -12.9315688143396, 2.4384; !- X,Y,Z Vertex 4 {m}

OS:Surface,
  {7b397c6b-c281-4bef-9dcb-223d1df5fb01}, !- Handle
  Surface 10,                             !- Name
  Wall,                                   !- Surface Type
  ,                                       !- Construction Name
  {2aa7e7f7-38a2-41de-96b7-07a5d365c09c}, !- Space Name
  Outdoors,                               !- Outside Boundary Condition
  ,                                       !- Outside Boundary Condition Object
  SunExposed,                             !- Sun Exposure
  WindExposed,                            !- Wind Exposure
  ,                                       !- View Factor to Ground
  ,                                       !- Number of Vertices
  0, -6.46578440716979, 5.6712922035849,  !- X,Y,Z Vertex 1 {m}
  0, 0, 2.4384,                           !- X,Y,Z Vertex 2 {m}
  0, -12.9315688143396, 2.4384;           !- X,Y,Z Vertex 3 {m}

OS:Surface,
  {f5f6765a-301e-4ec0-9705-d88fee23cc43}, !- Handle
  Surface 11,                             !- Name
  Wall,                                   !- Surface Type
  ,                                       !- Construction Name
  {2aa7e7f7-38a2-41de-96b7-07a5d365c09c}, !- Space Name
  Adiabatic,                              !- Outside Boundary Condition
  ,                                       !- Outside Boundary Condition Object
  NoSun,                                  !- Sun Exposure
  NoWind,                                 !- Wind Exposure
  ,                                       !- View Factor to Ground
  ,                                       !- Number of Vertices
  6.46578440716979, -6.46578440716979, 5.6712922035849, !- X,Y,Z Vertex 1 {m}
  6.46578440716979, -12.9315688143396, 2.4384, !- X,Y,Z Vertex 2 {m}
  6.46578440716979, 0, 2.4384;            !- X,Y,Z Vertex 3 {m}

OS:Space,
  {2aa7e7f7-38a2-41de-96b7-07a5d365c09c}, !- Handle
  unfinished attic space,                 !- Name
  {40eb0fc1-9821-44b8-8c43-315ff3f76648}, !- Space Type Name
  ,                                       !- Default Construction Set Name
  ,                                       !- Default Schedule Set Name
  ,                                       !- Direction of Relative North {deg}
  ,                                       !- X Origin {m}
  ,                                       !- Y Origin {m}
  ,                                       !- Z Origin {m}
  ,                                       !- Building Story Name
  {9fb82349-8c96-49ec-9f77-2aab8b82ba5a}; !- Thermal Zone Name

OS:ThermalZone,
  {9fb82349-8c96-49ec-9f77-2aab8b82ba5a}, !- Handle
  unfinished attic zone,                  !- Name
  ,                                       !- Multiplier
  ,                                       !- Ceiling Height {m}
  ,                                       !- Volume {m3}
  ,                                       !- Floor Area {m2}
  ,                                       !- Zone Inside Convection Algorithm
  ,                                       !- Zone Outside Convection Algorithm
  ,                                       !- Zone Conditioning Equipment List Name
  {6507d0ec-fe8d-45a9-b7ab-dbd035805aab}, !- Zone Air Inlet Port List
  {68363ad8-6413-49d6-99e3-7e2fcfcd0202}, !- Zone Air Exhaust Port List
  {eac1977c-a8b8-40b5-b2b3-4f09233ddc3f}, !- Zone Air Node Name
  {9687d1f4-93dd-4e7c-8168-423f8ec71693}, !- Zone Return Air Port List
  ,                                       !- Primary Daylighting Control Name
  ,                                       !- Fraction of Zone Controlled by Primary Daylighting Control
  ,                                       !- Secondary Daylighting Control Name
  ,                                       !- Fraction of Zone Controlled by Secondary Daylighting Control
  ,                                       !- Illuminance Map Name
  ,                                       !- Group Rendering Name
  ,                                       !- Thermostat Name
  No;                                     !- Use Ideal Air Loads

OS:Node,
  {62de4a40-536e-435c-bf03-da3c3f8d4690}, !- Handle
  Node 2,                                 !- Name
  {eac1977c-a8b8-40b5-b2b3-4f09233ddc3f}, !- Inlet Port
  ;                                       !- Outlet Port

OS:Connection,
  {eac1977c-a8b8-40b5-b2b3-4f09233ddc3f}, !- Handle
  {9fb82349-8c96-49ec-9f77-2aab8b82ba5a}, !- Source Object
  11,                                     !- Outlet Port
  {62de4a40-536e-435c-bf03-da3c3f8d4690}, !- Target Object
  2;                                      !- Inlet Port

OS:PortList,
  {6507d0ec-fe8d-45a9-b7ab-dbd035805aab}, !- Handle
  {9fb82349-8c96-49ec-9f77-2aab8b82ba5a}; !- HVAC Component

OS:PortList,
  {68363ad8-6413-49d6-99e3-7e2fcfcd0202}, !- Handle
  {9fb82349-8c96-49ec-9f77-2aab8b82ba5a}; !- HVAC Component

OS:PortList,
  {9687d1f4-93dd-4e7c-8168-423f8ec71693}, !- Handle
  {9fb82349-8c96-49ec-9f77-2aab8b82ba5a}; !- HVAC Component

OS:Sizing:Zone,
  {a2bac293-e8c6-4775-a7a6-b9b7df6bca82}, !- Handle
  {9fb82349-8c96-49ec-9f77-2aab8b82ba5a}, !- Zone or ZoneList Name
  SupplyAirTemperature,                   !- Zone Cooling Design Supply Air Temperature Input Method
  14,                                     !- Zone Cooling Design Supply Air Temperature {C}
  11.11,                                  !- Zone Cooling Design Supply Air Temperature Difference {deltaC}
  SupplyAirTemperature,                   !- Zone Heating Design Supply Air Temperature Input Method
  40,                                     !- Zone Heating Design Supply Air Temperature {C}
  11.11,                                  !- Zone Heating Design Supply Air Temperature Difference {deltaC}
  0.0085,                                 !- Zone Cooling Design Supply Air Humidity Ratio {kg-H2O/kg-air}
  0.008,                                  !- Zone Heating Design Supply Air Humidity Ratio {kg-H2O/kg-air}
  ,                                       !- Zone Heating Sizing Factor
  ,                                       !- Zone Cooling Sizing Factor
  DesignDay,                              !- Cooling Design Air Flow Method
  ,                                       !- Cooling Design Air Flow Rate {m3/s}
  ,                                       !- Cooling Minimum Air Flow per Zone Floor Area {m3/s-m2}
  ,                                       !- Cooling Minimum Air Flow {m3/s}
  ,                                       !- Cooling Minimum Air Flow Fraction
  DesignDay,                              !- Heating Design Air Flow Method
  ,                                       !- Heating Design Air Flow Rate {m3/s}
  ,                                       !- Heating Maximum Air Flow per Zone Floor Area {m3/s-m2}
  ,                                       !- Heating Maximum Air Flow {m3/s}
  ,                                       !- Heating Maximum Air Flow Fraction
  No,                                     !- Account for Dedicated Outdoor Air System
  NeutralSupplyAir,                       !- Dedicated Outdoor Air System Control Strategy
  autosize,                               !- Dedicated Outdoor Air Low Setpoint Temperature for Design {C}
  autosize;                               !- Dedicated Outdoor Air High Setpoint Temperature for Design {C}

OS:ZoneHVAC:EquipmentList,
  {1af9d3c0-d9e2-4d85-9e00-fa79b9396af7}, !- Handle
  Zone HVAC Equipment List 2,             !- Name
  {9fb82349-8c96-49ec-9f77-2aab8b82ba5a}; !- Thermal Zone

OS:SpaceType,
  {40eb0fc1-9821-44b8-8c43-315ff3f76648}, !- Handle
  Space Type 2,                           !- Name
  ,                                       !- Default Construction Set Name
  ,                                       !- Default Schedule Set Name
  ,                                       !- Group Rendering Name
  ,                                       !- Design Specification Outdoor Air Object Name
  ,                                       !- Standards Template
  ,                                       !- Standards Building Type
  unfinished attic;                       !- Standards Space Type

OS:BuildingUnit,
  {752cb657-aaaa-4e24-8be6-a5223d8ae6b1}, !- Handle
  unit 1,                                 !- Name
  ,                                       !- Rendering Color
  Residential;                            !- Building Unit Type

OS:AdditionalProperties,
  {c54f87f2-69f6-46f1-8b10-46303d3b4256}, !- Handle
  {752cb657-aaaa-4e24-8be6-a5223d8ae6b1}, !- Object Name
  NumberOfBedrooms,                       !- Feature Name 1
  Integer,                                !- Feature Data Type 1
  3,                                      !- Feature Value 1
  NumberOfBathrooms,                      !- Feature Name 2
  Double,                                 !- Feature Data Type 2
  2,                                      !- Feature Value 2
  NumberOfOccupants,                      !- Feature Name 3
  Double,                                 !- Feature Data Type 3
  3.3900000000000001;                     !- Feature Value 3

OS:External:File,