!- NOTE: Auto-generated from /test/osw_files/SFA_4units_1story_FB_UA_3Beds_2Baths_Denver_WHTank_ClothesWasher.osw

OS:Version,
  {9b54f0c5-4f99-4621-903a-7e8dd9ddb723}, !- Handle
  2.8.0;                                  !- Version Identifier

OS:Building,
  {a2abd23b-affa-4026-9fe6-0b4c02145204}, !- Handle
  Building 1,                             !- Name
  ,                                       !- Building Sector Type
  0,                                      !- North Axis {deg}
  ,                                       !- Nominal Floor to Floor Height {m}
  ,                                       !- Space Type Name
  ,                                       !- Default Construction Set Name
  ,                                       !- Default Schedule Set Name
  2,                                      !- Standards Number of Stories
  1,                                      !- Standards Number of Above Ground Stories
  ,                                       !- Standards Template
  singlefamilyattached,                   !- Standards Building Type
  4;                                      !- Standards Number of Living Units

OS:Facility,
  {4322ea18-1cb2-43b3-9185-685632d06f85}; !- Handle

OS:Site,
  {7d9c1cc4-dd29-462b-8b82-5c262031a79f}, !- Handle
  Denver Intl Ap_CO_USA,                  !- Name
  39.83,                                  !- Latitude {deg}
  -104.65,                                !- Longitude {deg}
  -7,                                     !- Time Zone {hr}
  1650,                                   !- Elevation {m}
  ;                                       !- Terrain

OS:SimulationControl,
  {c99e5013-1626-4e77-b3f7-da5040b7ea4e}, !- Handle
  ,                                       !- Do Zone Sizing Calculation
  ,                                       !- Do System Sizing Calculation
  ,                                       !- Do Plant Sizing Calculation
  No;                                     !- Run Simulation for Sizing Periods

OS:Sizing:Parameters,
  {aeff8138-b235-4451-a77e-e5b368ca2cf5}, !- Handle
  1.25,                                   !- Heating Sizing Factor
  1.15;                                   !- Cooling Sizing Factor

OS:Timestep,
  {450ab826-8d1a-4876-97a8-d685ad335308}, !- Handle
  6;                                      !- Number of Timesteps per Hour

OS:ShadowCalculation,
  {23eaf68e-4b6f-498c-84f6-9dcc55cc5511}, !- Handle
  20,                                     !- Calculation Frequency
  200;                                    !- Maximum Figures in Shadow Overlap Calculations

OS:HeatBalanceAlgorithm,
  {091b39ec-8bb4-4080-b1f0-23b74a75af5c}, !- Handle
  ConductionTransferFunction,             !- Algorithm
  200;                                    !- Surface Temperature Upper Limit {C}

OS:RunPeriod,
  {b8a7efaa-46d4-45eb-9d2c-d3a4de774d52}, !- Handle
  Run Period 1,                           !- Name
  1,                                      !- Begin Month
  1,                                      !- Begin Day of Month
  12,                                     !- End Month
  31,                                     !- End Day of Month
  ,                                       !- Use Weather File Holidays and Special Days
  ,                                       !- Use Weather File Daylight Saving Period
  ,                                       !- Apply Weekend Holiday Rule
  ,                                       !- Use Weather File Rain Indicators
  ,                                       !- Use Weather File Snow Indicators
  ;                                       !- Number of Times Runperiod to be Repeated

OS:LifeCycleCost:Parameters,
  {f32d3665-9b0f-4a0f-9983-6868da395c51}, !- Handle
  ,                                       !- Analysis Type
  ,                                       !- Discounting Convention
  ,                                       !- Inflation Approach
  ,                                       !- Real Discount Rate
  ,                                       !- Nominal Discount Rate
  ,                                       !- Inflation
  ,                                       !- Base Date Month
  ,                                       !- Base Date Year
  ,                                       !- Service Date Month
  ,                                       !- Service Date Year
  ;                                       !- Length of Study Period in Years

OS:SurfaceConvectionAlgorithm:Outside,
  {2b8da909-72ae-4c0a-b055-018fbb9ceb0e}, !- Handle
  DOE-2;                                  !- Algorithm

OS:SurfaceConvectionAlgorithm:Inside,
  {b872fa51-eb4e-4bb1-8d35-9159b429d465}, !- Handle
  TARP;                                   !- Algorithm

OS:ZoneCapacitanceMultiplier:ResearchSpecial,
  {764f6739-9ef0-4fdb-a857-e6146dc145b2}, !- Handle
  ,                                       !- Temperature Capacity Multiplier
  15,                                     !- Humidity Capacity Multiplier
  ;                                       !- Carbon Dioxide Capacity Multiplier

OS:ThermalZone,
  {05cff858-f256-4239-bb04-aa95ca6d8829}, !- Handle
  living zone,                            !- Name
  ,                                       !- Multiplier
  ,                                       !- Ceiling Height {m}
  ,                                       !- Volume {m3}
  ,                                       !- Floor Area {m2}
  ,                                       !- Zone Inside Convection Algorithm
  ,                                       !- Zone Outside Convection Algorithm
  ,                                       !- Zone Conditioning Equipment List Name
  {7ae5e683-18f5-4d87-89a3-fec2ead866f4}, !- Zone Air Inlet Port List
  {6f5d5638-aa59-482a-abad-e17a0c044a93}, !- Zone Air Exhaust Port List
  {2195f730-091a-4094-9e36-9b5986239305}, !- Zone Air Node Name
  {06b74b09-7f92-4ae0-94a8-14e0c713f000}, !- Zone Return Air Port List
  ,                                       !- Primary Daylighting Control Name
  ,                                       !- Fraction of Zone Controlled by Primary Daylighting Control
  ,                                       !- Secondary Daylighting Control Name
  ,                                       !- Fraction of Zone Controlled by Secondary Daylighting Control
  ,                                       !- Illuminance Map Name
  ,                                       !- Group Rendering Name
  ,                                       !- Thermostat Name
  No;                                     !- Use Ideal Air Loads

OS:Node,
  {6eab5358-2d4c-4b44-9650-860819179618}, !- Handle
  Node 1,                                 !- Name
  {2195f730-091a-4094-9e36-9b5986239305}, !- Inlet Port
  ;                                       !- Outlet Port

OS:Connection,
  {2195f730-091a-4094-9e36-9b5986239305}, !- Handle
  {1a14571e-053c-4b09-8041-cab707dc78f7}, !- Name
  {05cff858-f256-4239-bb04-aa95ca6d8829}, !- Source Object
  11,                                     !- Outlet Port
  {6eab5358-2d4c-4b44-9650-860819179618}, !- Target Object
  2;                                      !- Inlet Port

OS:PortList,
  {7ae5e683-18f5-4d87-89a3-fec2ead866f4}, !- Handle
  {7993cc93-6d5f-4296-bcae-124592af2de4}, !- Name
  {05cff858-f256-4239-bb04-aa95ca6d8829}; !- HVAC Component

OS:PortList,
  {6f5d5638-aa59-482a-abad-e17a0c044a93}, !- Handle
  {c857409d-2d02-4a4a-a713-73dd7905d3bb}, !- Name
  {05cff858-f256-4239-bb04-aa95ca6d8829}; !- HVAC Component

OS:PortList,
  {06b74b09-7f92-4ae0-94a8-14e0c713f000}, !- Handle
  {a5613c1f-49ba-495c-a28e-8ab53cb3e566}, !- Name
  {05cff858-f256-4239-bb04-aa95ca6d8829}; !- HVAC Component

OS:Sizing:Zone,
  {25bba35d-98d3-4f89-abc2-28a4bc9e65c6}, !- Handle
  {05cff858-f256-4239-bb04-aa95ca6d8829}, !- Zone or ZoneList Name
  SupplyAirTemperature,                   !- Zone Cooling Design Supply Air Temperature Input Method
  14,                                     !- Zone Cooling Design Supply Air Temperature {C}
  11.11,                                  !- Zone Cooling Design Supply Air Temperature Difference {deltaC}
  SupplyAirTemperature,                   !- Zone Heating Design Supply Air Temperature Input Method
  40,                                     !- Zone Heating Design Supply Air Temperature {C}
  11.11,                                  !- Zone Heating Design Supply Air Temperature Difference {deltaC}
  0.0085,                                 !- Zone Cooling Design Supply Air Humidity Ratio {kg-H2O/kg-air}
  0.008,                                  !- Zone Heating Design Supply Air Humidity Ratio {kg-H2O/kg-air}
  ,                                       !- Zone Heating Sizing Factor
  ,                                       !- Zone Cooling Sizing Factor
  DesignDay,                              !- Cooling Design Air Flow Method
  ,                                       !- Cooling Design Air Flow Rate {m3/s}
  ,                                       !- Cooling Minimum Air Flow per Zone Floor Area {m3/s-m2}
  ,                                       !- Cooling Minimum Air Flow {m3/s}
  ,                                       !- Cooling Minimum Air Flow Fraction
  DesignDay,                              !- Heating Design Air Flow Method
  ,                                       !- Heating Design Air Flow Rate {m3/s}
  ,                                       !- Heating Maximum Air Flow per Zone Floor Area {m3/s-m2}
  ,                                       !- Heating Maximum Air Flow {m3/s}
  ,                                       !- Heating Maximum Air Flow Fraction
  ,                                       !- Design Zone Air Distribution Effectiveness in Cooling Mode
  ,                                       !- Design Zone Air Distribution Effectiveness in Heating Mode
  No,                                     !- Account for Dedicated Outdoor Air System
  NeutralSupplyAir,                       !- Dedicated Outdoor Air System Control Strategy
  autosize,                               !- Dedicated Outdoor Air Low Setpoint Temperature for Design {C}
  autosize;                               !- Dedicated Outdoor Air High Setpoint Temperature for Design {C}

OS:ZoneHVAC:EquipmentList,
  {aea97ce5-e394-4eb6-a7ce-e8f42d09c5cb}, !- Handle
  Zone HVAC Equipment List 1,             !- Name
  {05cff858-f256-4239-bb04-aa95ca6d8829}; !- Thermal Zone

OS:Space,
  {a6bbf9a7-d653-4d6b-9c95-d06a42da101f}, !- Handle
  living space,                           !- Name
  {de751259-1953-4f07-8acc-4384c6279223}, !- Space Type Name
  ,                                       !- Default Construction Set Name
  ,                                       !- Default Schedule Set Name
  ,                                       !- Direction of Relative North {deg}
  ,                                       !- X Origin {m}
  ,                                       !- Y Origin {m}
  ,                                       !- Z Origin {m}
  ,                                       !- Building Story Name
  {05cff858-f256-4239-bb04-aa95ca6d8829}, !- Thermal Zone Name
  ,                                       !- Part of Total Floor Area
  ,                                       !- Design Specification Outdoor Air Object Name
  {1792a018-ff75-4915-b7f5-01d31336aca0}; !- Building Unit Name

OS:Surface,
  {aeff8edb-d7d5-4118-8874-b3a5ae323f1c}, !- Handle
  Surface 1,                              !- Name
  Floor,                                  !- Surface Type
  ,                                       !- Construction Name
  {a6bbf9a7-d653-4d6b-9c95-d06a42da101f}, !- Space Name
  Surface,                                !- Outside Boundary Condition
  {eb0800f8-e0d0-4154-ae26-83aa9e573e12}, !- Outside Boundary Condition Object
  NoSun,                                  !- Sun Exposure
  NoWind,                                 !- Wind Exposure
  ,                                       !- View Factor to Ground
  ,                                       !- Number of Vertices
  0, -9.144, 0,                           !- X,Y,Z Vertex 1 {m}
  0, 0, 0,                                !- X,Y,Z Vertex 2 {m}
  4.572, 0, 0,                            !- X,Y,Z Vertex 3 {m}
  4.572, -9.144, 0;                       !- X,Y,Z Vertex 4 {m}

OS:Surface,
  {396f1c6d-ae55-4363-8ec8-43069f2902ec}, !- Handle
  Surface 2,                              !- Name
  Wall,                                   !- Surface Type
  ,                                       !- Construction Name
  {a6bbf9a7-d653-4d6b-9c95-d06a42da101f}, !- Space Name
  Outdoors,                               !- Outside Boundary Condition
  ,                                       !- Outside Boundary Condition Object
  SunExposed,                             !- Sun Exposure
  WindExposed,                            !- Wind Exposure
  ,                                       !- View Factor to Ground
  ,                                       !- Number of Vertices
  0, 0, 2.4384,                           !- X,Y,Z Vertex 1 {m}
  0, 0, 0,                                !- X,Y,Z Vertex 2 {m}
  0, -9.144, 0,                           !- X,Y,Z Vertex 3 {m}
  0, -9.144, 2.4384;                      !- X,Y,Z Vertex 4 {m}

OS:Surface,
  {17a9dc2d-a136-42a8-aadc-71427ee48cfa}, !- Handle
  Surface 3,                              !- Name
  Wall,                                   !- Surface Type
  ,                                       !- Construction Name
  {a6bbf9a7-d653-4d6b-9c95-d06a42da101f}, !- Space Name
  Outdoors,                               !- Outside Boundary Condition
  ,                                       !- Outside Boundary Condition Object
  SunExposed,                             !- Sun Exposure
  WindExposed,                            !- Wind Exposure
  ,                                       !- View Factor to Ground
  ,                                       !- Number of Vertices
  4.572, 0, 2.4384,                       !- X,Y,Z Vertex 1 {m}
  4.572, 0, 0,                            !- X,Y,Z Vertex 2 {m}
  0, 0, 0,                                !- X,Y,Z Vertex 3 {m}
  0, 0, 2.4384;                           !- X,Y,Z Vertex 4 {m}

OS:Surface,
  {0f61ada9-c017-477f-ace3-95d7ffb1584e}, !- Handle
  Surface 4,                              !- Name
  Wall,                                   !- Surface Type
  ,                                       !- Construction Name
  {a6bbf9a7-d653-4d6b-9c95-d06a42da101f}, !- Space Name
  Surface,                                !- Outside Boundary Condition
  {a0818d1b-c14a-406b-80ee-0a93cdbf8414}, !- Outside Boundary Condition Object
  NoSun,                                  !- Sun Exposure
  NoWind,                                 !- Wind Exposure
  ,                                       !- View Factor to Ground
  ,                                       !- Number of Vertices
  4.572, -9.144, 2.4384,                  !- X,Y,Z Vertex 1 {m}
  4.572, -9.144, 0,                       !- X,Y,Z Vertex 2 {m}
  4.572, 0, 0,                            !- X,Y,Z Vertex 3 {m}
  4.572, 0, 2.4384;                       !- X,Y,Z Vertex 4 {m}

OS:Surface,
  {c7de079f-3c65-49c5-814b-b711d5f806b7}, !- Handle
  Surface 5,                              !- Name
  Wall,                                   !- Surface Type
  ,                                       !- Construction Name
  {a6bbf9a7-d653-4d6b-9c95-d06a42da101f}, !- Space Name
  Outdoors,                               !- Outside Boundary Condition
  ,                                       !- Outside Boundary Condition Object
  SunExposed,                             !- Sun Exposure
  WindExposed,                            !- Wind Exposure
  ,                                       !- View Factor to Ground
  ,                                       !- Number of Vertices
  0, -9.144, 2.4384,                      !- X,Y,Z Vertex 1 {m}
  0, -9.144, 0,                           !- X,Y,Z Vertex 2 {m}
  4.572, -9.144, 0,                       !- X,Y,Z Vertex 3 {m}
  4.572, -9.144, 2.4384;                  !- X,Y,Z Vertex 4 {m}

OS:Surface,
  {6f8ea663-1af4-4d4c-a415-4dd16603b3c5}, !- Handle
  Surface 6,                              !- Name
  RoofCeiling,                            !- Surface Type
  ,                                       !- Construction Name
  {a6bbf9a7-d653-4d6b-9c95-d06a42da101f}, !- Space Name
  Surface,                                !- Outside Boundary Condition
  {075c64cc-fa39-45f0-b703-3ebeb54589c3}, !- Outside Boundary Condition Object
  NoSun,                                  !- Sun Exposure
  NoWind,                                 !- Wind Exposure
  ,                                       !- View Factor to Ground
  ,                                       !- Number of Vertices
  4.572, -9.144, 2.4384,                  !- X,Y,Z Vertex 1 {m}
  4.572, 0, 2.4384,                       !- X,Y,Z Vertex 2 {m}
  0, 0, 2.4384,                           !- X,Y,Z Vertex 3 {m}
  0, -9.144, 2.4384;                      !- X,Y,Z Vertex 4 {m}

OS:SpaceType,
  {de751259-1953-4f07-8acc-4384c6279223}, !- Handle
  Space Type 1,                           !- Name
  ,                                       !- Default Construction Set Name
  ,                                       !- Default Schedule Set Name
  ,                                       !- Group Rendering Name
  ,                                       !- Design Specification Outdoor Air Object Name
  ,                                       !- Standards Template
  ,                                       !- Standards Building Type
  living;                                 !- Standards Space Type

OS:ThermalZone,
  {15e693c6-7eb6-40c8-8784-ee2a26ac262e}, !- Handle
  living zone|unit 2,                     !- Name
  ,                                       !- Multiplier
  ,                                       !- Ceiling Height {m}
  ,                                       !- Volume {m3}
  ,                                       !- Floor Area {m2}
  ,                                       !- Zone Inside Convection Algorithm
  ,                                       !- Zone Outside Convection Algorithm
  ,                                       !- Zone Conditioning Equipment List Name
  {65c0b47e-0c54-446d-93ba-ea0e100d23a0}, !- Zone Air Inlet Port List
  {11133ad1-517f-413b-95f8-3c9bcd0b5335}, !- Zone Air Exhaust Port List
  {7dab2bb1-8704-4ffe-be54-6277b0f75264}, !- Zone Air Node Name
  {15e525d2-2c3c-4ae9-8cd8-76bb4eaf8d74}, !- Zone Return Air Port List
  ,                                       !- Primary Daylighting Control Name
  ,                                       !- Fraction of Zone Controlled by Primary Daylighting Control
  ,                                       !- Secondary Daylighting Control Name
  ,                                       !- Fraction of Zone Controlled by Secondary Daylighting Control
  ,                                       !- Illuminance Map Name
  ,                                       !- Group Rendering Name
  ,                                       !- Thermostat Name
  No;                                     !- Use Ideal Air Loads

OS:Node,
  {f6d895cf-7ba4-4c81-9c2d-ab263c2ada31}, !- Handle
  Node 2,                                 !- Name
  {7dab2bb1-8704-4ffe-be54-6277b0f75264}, !- Inlet Port
  ;                                       !- Outlet Port

OS:Connection,
  {7dab2bb1-8704-4ffe-be54-6277b0f75264}, !- Handle
  {284285ab-b6d0-486d-a7c3-32f6993afd0a}, !- Name
  {15e693c6-7eb6-40c8-8784-ee2a26ac262e}, !- Source Object
  11,                                     !- Outlet Port
  {f6d895cf-7ba4-4c81-9c2d-ab263c2ada31}, !- Target Object
  2;                                      !- Inlet Port

OS:PortList,
  {65c0b47e-0c54-446d-93ba-ea0e100d23a0}, !- Handle
  {08e54336-5c1b-4f5e-ad90-c96ea85885bb}, !- Name
  {15e693c6-7eb6-40c8-8784-ee2a26ac262e}; !- HVAC Component

OS:PortList,
  {11133ad1-517f-413b-95f8-3c9bcd0b5335}, !- Handle
  {5e61bd98-ec20-40b6-b0df-1a0434168059}, !- Name
  {15e693c6-7eb6-40c8-8784-ee2a26ac262e}; !- HVAC Component

OS:PortList,
  {15e525d2-2c3c-4ae9-8cd8-76bb4eaf8d74}, !- Handle
  {ec56c982-b7eb-419c-8654-619cbbead5ab}, !- Name
  {15e693c6-7eb6-40c8-8784-ee2a26ac262e}; !- HVAC Component

OS:Sizing:Zone,
  {e8e3110e-b5d5-494c-90bf-4db74b666856}, !- Handle
  {15e693c6-7eb6-40c8-8784-ee2a26ac262e}, !- Zone or ZoneList Name
  SupplyAirTemperature,                   !- Zone Cooling Design Supply Air Temperature Input Method
  14,                                     !- Zone Cooling Design Supply Air Temperature {C}
  11.11,                                  !- Zone Cooling Design Supply Air Temperature Difference {deltaC}
  SupplyAirTemperature,                   !- Zone Heating Design Supply Air Temperature Input Method
  40,                                     !- Zone Heating Design Supply Air Temperature {C}
  11.11,                                  !- Zone Heating Design Supply Air Temperature Difference {deltaC}
  0.0085,                                 !- Zone Cooling Design Supply Air Humidity Ratio {kg-H2O/kg-air}
  0.008,                                  !- Zone Heating Design Supply Air Humidity Ratio {kg-H2O/kg-air}
  ,                                       !- Zone Heating Sizing Factor
  ,                                       !- Zone Cooling Sizing Factor
  DesignDay,                              !- Cooling Design Air Flow Method
  ,                                       !- Cooling Design Air Flow Rate {m3/s}
  ,                                       !- Cooling Minimum Air Flow per Zone Floor Area {m3/s-m2}
  ,                                       !- Cooling Minimum Air Flow {m3/s}
  ,                                       !- Cooling Minimum Air Flow Fraction
  DesignDay,                              !- Heating Design Air Flow Method
  ,                                       !- Heating Design Air Flow Rate {m3/s}
  ,                                       !- Heating Maximum Air Flow per Zone Floor Area {m3/s-m2}
  ,                                       !- Heating Maximum Air Flow {m3/s}
  ,                                       !- Heating Maximum Air Flow Fraction
  ,                                       !- Design Zone Air Distribution Effectiveness in Cooling Mode
  ,                                       !- Design Zone Air Distribution Effectiveness in Heating Mode
  No,                                     !- Account for Dedicated Outdoor Air System
  NeutralSupplyAir,                       !- Dedicated Outdoor Air System Control Strategy
  autosize,                               !- Dedicated Outdoor Air Low Setpoint Temperature for Design {C}
  autosize;                               !- Dedicated Outdoor Air High Setpoint Temperature for Design {C}

OS:ZoneHVAC:EquipmentList,
  {db245576-e5b0-4138-b408-09f176e63ace}, !- Handle
  Zone HVAC Equipment List 2,             !- Name
  {15e693c6-7eb6-40c8-8784-ee2a26ac262e}; !- Thermal Zone

OS:Space,
  {7592b2ba-31b1-4792-80fc-638c0211eb94}, !- Handle
  living space|unit 2|story 1,            !- Name
  {de751259-1953-4f07-8acc-4384c6279223}, !- Space Type Name
  ,                                       !- Default Construction Set Name
  ,                                       !- Default Schedule Set Name
  -0,                                     !- Direction of Relative North {deg}
  0,                                      !- X Origin {m}
  0,                                      !- Y Origin {m}
  0,                                      !- Z Origin {m}
  ,                                       !- Building Story Name
  {15e693c6-7eb6-40c8-8784-ee2a26ac262e}, !- Thermal Zone Name
  ,                                       !- Part of Total Floor Area
  ,                                       !- Design Specification Outdoor Air Object Name
  {93e4b40b-8d67-4207-8885-58020d0cadf1}; !- Building Unit Name

OS:Surface,
  {9a229ed6-0265-4dbf-b5be-5eeeb37f3d73}, !- Handle
  Surface 12,                             !- Name
  Wall,                                   !- Surface Type
  ,                                       !- Construction Name
  {7592b2ba-31b1-4792-80fc-638c0211eb94}, !- Space Name
  Surface,                                !- Outside Boundary Condition
  {02b7d7b7-6645-4934-871a-3c7e96500d0d}, !- Outside Boundary Condition Object
  NoSun,                                  !- Sun Exposure
  NoWind,                                 !- Wind Exposure
  ,                                       !- View Factor to Ground
  ,                                       !- Number of Vertices
  9.144, -9.144, 2.4384,                  !- X,Y,Z Vertex 1 {m}
  9.144, -9.144, 0,                       !- X,Y,Z Vertex 2 {m}
  9.144, 0, 0,                            !- X,Y,Z Vertex 3 {m}
  9.144, 0, 2.4384;                       !- X,Y,Z Vertex 4 {m}

OS:Surface,
  {02e35564-fd47-46d7-af84-9e81c559d96b}, !- Handle
  Surface 13,                             !- Name
  Wall,                                   !- Surface Type
  ,                                       !- Construction Name
  {7592b2ba-31b1-4792-80fc-638c0211eb94}, !- Space Name
  Outdoors,                               !- Outside Boundary Condition
  ,                                       !- Outside Boundary Condition Object
  SunExposed,                             !- Sun Exposure
  WindExposed,                            !- Wind Exposure
  ,                                       !- View Factor to Ground
  ,                                       !- Number of Vertices
  9.144, 0, 2.4384,                       !- X,Y,Z Vertex 1 {m}
  9.144, 0, 0,                            !- X,Y,Z Vertex 2 {m}
  4.572, 0, 0,                            !- X,Y,Z Vertex 3 {m}
  4.572, 0, 2.4384;                       !- X,Y,Z Vertex 4 {m}

OS:Surface,
  {25eea0e5-db67-4ccd-b385-ffb142c03f79}, !- Handle
  Surface 14,                             !- Name
  Floor,                                  !- Surface Type
  ,                                       !- Construction Name
  {7592b2ba-31b1-4792-80fc-638c0211eb94}, !- Space Name
  Surface,                                !- Outside Boundary Condition
  {dfb5c5d0-4893-4707-be07-76cd59749e9d}, !- Outside Boundary Condition Object
  NoSun,                                  !- Sun Exposure
  NoWind,                                 !- Wind Exposure
  ,                                       !- View Factor to Ground
  ,                                       !- Number of Vertices
  4.572, -9.144, 0,                       !- X,Y,Z Vertex 1 {m}
  4.572, 0, 0,                            !- X,Y,Z Vertex 2 {m}
  9.144, 0, 0,                            !- X,Y,Z Vertex 3 {m}
  9.144, -9.144, 0;                       !- X,Y,Z Vertex 4 {m}

OS:Surface,
  {9f29b6da-4759-449e-852c-f1ce250116cc}, !- Handle
  Surface 15,                             !- Name
  RoofCeiling,                            !- Surface Type
  ,                                       !- Construction Name
  {7592b2ba-31b1-4792-80fc-638c0211eb94}, !- Space Name
  Surface,                                !- Outside Boundary Condition
  {e343fbf0-4a1d-49df-8af8-a0cf5f325a86}, !- Outside Boundary Condition Object
  NoSun,                                  !- Sun Exposure
  NoWind,                                 !- Wind Exposure
  ,                                       !- View Factor to Ground
  ,                                       !- Number of Vertices
  9.144, -9.144, 2.4384,                  !- X,Y,Z Vertex 1 {m}
  9.144, 0, 2.4384,                       !- X,Y,Z Vertex 2 {m}
  4.572, 0, 2.4384,                       !- X,Y,Z Vertex 3 {m}
  4.572, -9.144, 2.4384;                  !- X,Y,Z Vertex 4 {m}

OS:Surface,
  {a0818d1b-c14a-406b-80ee-0a93cdbf8414}, !- Handle
  Surface 16,                             !- Name
  Wall,                                   !- Surface Type
  ,                                       !- Construction Name
  {7592b2ba-31b1-4792-80fc-638c0211eb94}, !- Space Name
  Surface,                                !- Outside Boundary Condition
  {0f61ada9-c017-477f-ace3-95d7ffb1584e}, !- Outside Boundary Condition Object
  NoSun,                                  !- Sun Exposure
  NoWind,                                 !- Wind Exposure
  ,                                       !- View Factor to Ground
  ,                                       !- Number of Vertices
  4.572, 0, 2.4384,                       !- X,Y,Z Vertex 1 {m}
  4.572, 0, 0,                            !- X,Y,Z Vertex 2 {m}
  4.572, -9.144, 0,                       !- X,Y,Z Vertex 3 {m}
  4.572, -9.144, 2.4384;                  !- X,Y,Z Vertex 4 {m}

OS:Surface,
  {bd30f226-7605-480a-b9e0-587e44e3b391}, !- Handle
  Surface 17,                             !- Name
  Wall,                                   !- Surface Type
  ,                                       !- Construction Name
  {7592b2ba-31b1-4792-80fc-638c0211eb94}, !- Space Name
  Outdoors,                               !- Outside Boundary Condition
  ,                                       !- Outside Boundary Condition Object
  SunExposed,                             !- Sun Exposure
  WindExposed,                            !- Wind Exposure
  ,                                       !- View Factor to Ground
  ,                                       !- Number of Vertices
  4.572, -9.144, 2.4384,                  !- X,Y,Z Vertex 1 {m}
  4.572, -9.144, 0,                       !- X,Y,Z Vertex 2 {m}
  9.144, -9.144, 0,                       !- X,Y,Z Vertex 3 {m}
  9.144, -9.144, 2.4384;                  !- X,Y,Z Vertex 4 {m}

OS:ThermalZone,
  {b434068f-4b7e-4c3d-a7ff-4d4048814af5}, !- Handle
  living zone|unit 3,                     !- Name
  ,                                       !- Multiplier
  ,                                       !- Ceiling Height {m}
  ,                                       !- Volume {m3}
  ,                                       !- Floor Area {m2}
  ,                                       !- Zone Inside Convection Algorithm