!- NOTE: Auto-generated from /test/osw_files/SFA_4units_1story_SL_UA_3Beds_2Baths_Denver_Central_System_Boiler_Baseboards_NoSetpoints.osw

OS:Version,
  {ce37ed44-4382-483f-84ac-7b187176e11f}, !- Handle
  2.8.0;                                  !- Version Identifier

OS:SimulationControl,
  {11158754-b880-4e0e-bae1-2c4efa6012e8}, !- Handle
  ,                                       !- Do Zone Sizing Calculation
  ,                                       !- Do System Sizing Calculation
  ,                                       !- Do Plant Sizing Calculation
  Yes;                                    !- Run Simulation for Sizing Periods

OS:Timestep,
  {2bd1a3f5-52ee-42db-990d-3aead2d796be}, !- Handle
  6;                                      !- Number of Timesteps per Hour

OS:ShadowCalculation,
  {76ce0c39-34a4-4591-83ad-fa0d14f51d55}, !- Handle
  20,                                     !- Calculation Frequency
  200;                                    !- Maximum Figures in Shadow Overlap Calculations

OS:SurfaceConvectionAlgorithm:Outside,
  {d5ee79b4-9393-437f-8bfb-bdc2f3ac870f}, !- Handle
  DOE-2;                                  !- Algorithm

OS:SurfaceConvectionAlgorithm:Inside,
  {adcef398-6103-4b89-b954-4da8e581d4de}, !- Handle
  TARP;                                   !- Algorithm

OS:ZoneCapacitanceMultiplier:ResearchSpecial,
  {4cc63cb7-2eb4-482d-8826-6792605e3582}, !- Handle
  ,                                       !- Temperature Capacity Multiplier
  15,                                     !- Humidity Capacity Multiplier
  ;                                       !- Carbon Dioxide Capacity Multiplier

OS:RunPeriod,
  {e3c39f27-fddd-4911-8157-98405cd0752c}, !- Handle
  Run Period 1,                           !- Name
  1,                                      !- Begin Month
  1,                                      !- Begin Day of Month
  12,                                     !- End Month
  31,                                     !- End Day of Month
  ,                                       !- Use Weather File Holidays and Special Days
  ,                                       !- Use Weather File Daylight Saving Period
  ,                                       !- Apply Weekend Holiday Rule
  ,                                       !- Use Weather File Rain Indicators
  ,                                       !- Use Weather File Snow Indicators
  ;                                       !- Number of Times Runperiod to be Repeated

OS:ThermalZone,
  {92fe0e71-f222-4e02-93de-f377ee6a7265}, !- Handle
  living zone,                            !- Name
  ,                                       !- Multiplier
  ,                                       !- Ceiling Height {m}
  ,                                       !- Volume {m3}
  ,                                       !- Floor Area {m2}
  ,                                       !- Zone Inside Convection Algorithm
  ,                                       !- Zone Outside Convection Algorithm
  ,                                       !- Zone Conditioning Equipment List Name
  {d7a6b2d6-09b1-4394-a9f5-de03504c0ebf}, !- Zone Air Inlet Port List
  {daf13fdd-34b2-429f-8c8d-5f01fd675d33}, !- Zone Air Exhaust Port List
  {b4ad9f47-499d-4471-9aab-91b84173397d}, !- Zone Air Node Name
  {62b88ed9-dad0-441c-9032-d00dd0f5629d}, !- Zone Return Air Port List
  ,                                       !- Primary Daylighting Control Name
  ,                                       !- Fraction of Zone Controlled by Primary Daylighting Control
  ,                                       !- Secondary Daylighting Control Name
  ,                                       !- Fraction of Zone Controlled by Secondary Daylighting Control
  ,                                       !- Illuminance Map Name
  ,                                       !- Group Rendering Name
  ,                                       !- Thermostat Name
  No;                                     !- Use Ideal Air Loads

OS:Node,
  {d8f1fc53-6660-4bfa-a6b9-419e2b081ab7}, !- Handle
  Node 1,                                 !- Name
  {b4ad9f47-499d-4471-9aab-91b84173397d}, !- Inlet Port
  ;                                       !- Outlet Port

OS:Connection,
  {b4ad9f47-499d-4471-9aab-91b84173397d}, !- Handle
  {d6007f43-8162-455d-a41a-828f82f7192f}, !- Name
  {92fe0e71-f222-4e02-93de-f377ee6a7265}, !- Source Object
  11,                                     !- Outlet Port
  {d8f1fc53-6660-4bfa-a6b9-419e2b081ab7}, !- Target Object
  2;                                      !- Inlet Port

OS:PortList,
  {d7a6b2d6-09b1-4394-a9f5-de03504c0ebf}, !- Handle
  {cf3e26ce-762b-442d-bb09-ca8f4dc15067}, !- Name
  {92fe0e71-f222-4e02-93de-f377ee6a7265}; !- HVAC Component

OS:PortList,
  {daf13fdd-34b2-429f-8c8d-5f01fd675d33}, !- Handle
  {dd3bdb41-003a-402c-b43f-b5630542d845}, !- Name
  {92fe0e71-f222-4e02-93de-f377ee6a7265}; !- HVAC Component

OS:PortList,
  {62b88ed9-dad0-441c-9032-d00dd0f5629d}, !- Handle
  {87e0cdfb-37ce-4e9e-9620-0fb5ef8a6b02}, !- Name
  {92fe0e71-f222-4e02-93de-f377ee6a7265}; !- HVAC Component

OS:Sizing:Zone,
  {f0d2d3df-07d5-4ed8-bc08-9d276e24d28b}, !- Handle
  {92fe0e71-f222-4e02-93de-f377ee6a7265}, !- Zone or ZoneList Name
  SupplyAirTemperature,                   !- Zone Cooling Design Supply Air Temperature Input Method
  14,                                     !- Zone Cooling Design Supply Air Temperature {C}
  11.11,                                  !- Zone Cooling Design Supply Air Temperature Difference {deltaC}
  SupplyAirTemperature,                   !- Zone Heating Design Supply Air Temperature Input Method
  40,                                     !- Zone Heating Design Supply Air Temperature {C}
  11.11,                                  !- Zone Heating Design Supply Air Temperature Difference {deltaC}
  0.0085,                                 !- Zone Cooling Design Supply Air Humidity Ratio {kg-H2O/kg-air}
  0.008,                                  !- Zone Heating Design Supply Air Humidity Ratio {kg-H2O/kg-air}
  ,                                       !- Zone Heating Sizing Factor
  ,                                       !- Zone Cooling Sizing Factor
  DesignDay,                              !- Cooling Design Air Flow Method
  ,                                       !- Cooling Design Air Flow Rate {m3/s}
  ,                                       !- Cooling Minimum Air Flow per Zone Floor Area {m3/s-m2}
  ,                                       !- Cooling Minimum Air Flow {m3/s}
  ,                                       !- Cooling Minimum Air Flow Fraction
  DesignDay,                              !- Heating Design Air Flow Method
  ,                                       !- Heating Design Air Flow Rate {m3/s}
  ,                                       !- Heating Maximum Air Flow per Zone Floor Area {m3/s-m2}
  ,                                       !- Heating Maximum Air Flow {m3/s}
  ,                                       !- Heating Maximum Air Flow Fraction
  ,                                       !- Design Zone Air Distribution Effectiveness in Cooling Mode
  ,                                       !- Design Zone Air Distribution Effectiveness in Heating Mode
  No,                                     !- Account for Dedicated Outdoor Air System
  NeutralSupplyAir,                       !- Dedicated Outdoor Air System Control Strategy
  autosize,                               !- Dedicated Outdoor Air Low Setpoint Temperature for Design {C}
  autosize;                               !- Dedicated Outdoor Air High Setpoint Temperature for Design {C}

OS:ZoneHVAC:EquipmentList,
  {bdfc6522-10af-47e0-9dcd-6e3cbf7d94fc}, !- Handle
  Zone HVAC Equipment List 1,             !- Name
  {92fe0e71-f222-4e02-93de-f377ee6a7265}, !- Thermal Zone
  ,                                       !- Load Distribution Scheme
  {258184a8-a669-4a38-b2c2-807be06a336c}, !- Zone Equipment 1
  1,                                      !- Zone Equipment Cooling Sequence 1
  1,                                      !- Zone Equipment Heating or No-Load Sequence 1
  ,                                       !- Zone Equipment Sequential Cooling Fraction 1
  ;                                       !- Zone Equipment Sequential Heating Fraction 1

OS:Space,
  {c5071af9-c105-4655-af8a-657be83008e6}, !- Handle
  living space,                           !- Name
  {fa94f9e0-b56f-4f6b-abfd-dd16ab1c243d}, !- Space Type Name
  ,                                       !- Default Construction Set Name
  ,                                       !- Default Schedule Set Name
  ,                                       !- Direction of Relative North {deg}
  ,                                       !- X Origin {m}
  ,                                       !- Y Origin {m}
  ,                                       !- Z Origin {m}
  ,                                       !- Building Story Name
  {92fe0e71-f222-4e02-93de-f377ee6a7265}, !- Thermal Zone Name
  ,                                       !- Part of Total Floor Area
  ,                                       !- Design Specification Outdoor Air Object Name
  {216bd022-fe1a-4e4b-b216-5658692e513e}; !- Building Unit Name

OS:Surface,
  {b3322f29-2896-4546-a219-4137eb4207cb}, !- Handle
  Surface 1,                              !- Name
  Floor,                                  !- Surface Type
  ,                                       !- Construction Name
  {c5071af9-c105-4655-af8a-657be83008e6}, !- Space Name
  Foundation,                             !- Outside Boundary Condition
  ,                                       !- Outside Boundary Condition Object
  NoSun,                                  !- Sun Exposure
  NoWind,                                 !- Wind Exposure
  ,                                       !- View Factor to Ground
  ,                                       !- Number of Vertices
  0, -12.9315688143396, 0,                !- X,Y,Z Vertex 1 {m}
  0, 0, 0,                                !- X,Y,Z Vertex 2 {m}
  6.46578440716979, 0, 0,                 !- X,Y,Z Vertex 3 {m}
  6.46578440716979, -12.9315688143396, 0; !- X,Y,Z Vertex 4 {m}

OS:Surface,
  {9f228202-356c-4c2d-abc3-21bd841fe380}, !- Handle
  Surface 2,                              !- Name
  Wall,                                   !- Surface Type
  ,                                       !- Construction Name
  {c5071af9-c105-4655-af8a-657be83008e6}, !- Space Name
  Outdoors,                               !- Outside Boundary Condition
  ,                                       !- Outside Boundary Condition Object
  SunExposed,                             !- Sun Exposure
  WindExposed,                            !- Wind Exposure
  ,                                       !- View Factor to Ground
  ,                                       !- Number of Vertices
  0, 0, 2.4384,                           !- X,Y,Z Vertex 1 {m}
  0, 0, 0,                                !- X,Y,Z Vertex 2 {m}
  0, -12.9315688143396, 0,                !- X,Y,Z Vertex 3 {m}
  0, -12.9315688143396, 2.4384;           !- X,Y,Z Vertex 4 {m}

OS:Surface,
  {7f64b5ab-1f0c-4f3a-bfe7-3076a81e2211}, !- Handle
  Surface 3,                              !- Name
  Wall,                                   !- Surface Type
  ,                                       !- Construction Name
  {c5071af9-c105-4655-af8a-657be83008e6}, !- Space Name
  Outdoors,                               !- Outside Boundary Condition
  ,                                       !- Outside Boundary Condition Object
  SunExposed,                             !- Sun Exposure
  WindExposed,                            !- Wind Exposure
  ,                                       !- View Factor to Ground
  ,                                       !- Number of Vertices
  6.46578440716979, 0, 2.4384,            !- X,Y,Z Vertex 1 {m}
  6.46578440716979, 0, 0,                 !- X,Y,Z Vertex 2 {m}
  0, 0, 0,                                !- X,Y,Z Vertex 3 {m}
  0, 0, 2.4384;                           !- X,Y,Z Vertex 4 {m}

OS:Surface,
  {f49004eb-578e-408f-9af7-dafda47260a3}, !- Handle
  Surface 4,                              !- Name
  Wall,                                   !- Surface Type
  ,                                       !- Construction Name
  {c5071af9-c105-4655-af8a-657be83008e6}, !- Space Name
  Surface,                                !- Outside Boundary Condition
  {741377ce-35f8-47f6-9544-baf8a5100de8}, !- Outside Boundary Condition Object
  NoSun,                                  !- Sun Exposure
  NoWind,                                 !- Wind Exposure
  ,                                       !- View Factor to Ground
  ,                                       !- Number of Vertices
  6.46578440716979, -12.9315688143396, 2.4384, !- X,Y,Z Vertex 1 {m}
  6.46578440716979, -12.9315688143396, 0, !- X,Y,Z Vertex 2 {m}
  6.46578440716979, 0, 0,                 !- X,Y,Z Vertex 3 {m}
  6.46578440716979, 0, 2.4384;            !- X,Y,Z Vertex 4 {m}

OS:Surface,
  {bbada580-39eb-4105-8551-bd2ce7867127}, !- Handle
  Surface 5,                              !- Name
  Wall,                                   !- Surface Type
  ,                                       !- Construction Name
  {c5071af9-c105-4655-af8a-657be83008e6}, !- Space Name
  Outdoors,                               !- Outside Boundary Condition
  ,                                       !- Outside Boundary Condition Object
  SunExposed,                             !- Sun Exposure
  WindExposed,                            !- Wind Exposure
  ,                                       !- View Factor to Ground
  ,                                       !- Number of Vertices
  0, -12.9315688143396, 2.4384,           !- X,Y,Z Vertex 1 {m}
  0, -12.9315688143396, 0,                !- X,Y,Z Vertex 2 {m}
  6.46578440716979, -12.9315688143396, 0, !- X,Y,Z Vertex 3 {m}
  6.46578440716979, -12.9315688143396, 2.4384; !- X,Y,Z Vertex 4 {m}

OS:Surface,
  {584522f5-f54a-40f6-8385-2e5f656e5d2e}, !- Handle
  Surface 6,                              !- Name
  RoofCeiling,                            !- Surface Type
  ,                                       !- Construction Name
  {c5071af9-c105-4655-af8a-657be83008e6}, !- Space Name
  Surface,                                !- Outside Boundary Condition
  {f722bf90-727c-45a7-98e4-a302d60d8b08}, !- Outside Boundary Condition Object
  NoSun,                                  !- Sun Exposure
  NoWind,                                 !- Wind Exposure
  ,                                       !- View Factor to Ground
  ,                                       !- Number of Vertices
  6.46578440716979, -12.9315688143396, 2.4384, !- X,Y,Z Vertex 1 {m}
  6.46578440716979, 0, 2.4384,            !- X,Y,Z Vertex 2 {m}
  0, 0, 2.4384,                           !- X,Y,Z Vertex 3 {m}
  0, -12.9315688143396, 2.4384;           !- X,Y,Z Vertex 4 {m}

OS:SpaceType,
  {fa94f9e0-b56f-4f6b-abfd-dd16ab1c243d}, !- Handle
  Space Type 1,                           !- Name
  ,                                       !- Default Construction Set Name
  ,                                       !- Default Schedule Set Name
  ,                                       !- Group Rendering Name
  ,                                       !- Design Specification Outdoor Air Object Name
  ,                                       !- Standards Template
  ,                                       !- Standards Building Type
  living;                                 !- Standards Space Type

OS:ThermalZone,
  {55dbf56e-7a88-4ccc-a101-d0c566ffee06}, !- Handle
  living zone|unit 2,                     !- Name
  ,                                       !- Multiplier
  ,                                       !- Ceiling Height {m}
  ,                                       !- Volume {m3}
  ,                                       !- Floor Area {m2}
  ,                                       !- Zone Inside Convection Algorithm
  ,                                       !- Zone Outside Convection Algorithm
  ,                                       !- Zone Conditioning Equipment List Name
  {8698ebb9-cf34-4105-8ecf-88c457444880}, !- Zone Air Inlet Port List
  {ff1914ec-63ab-40ae-80fa-8c4c0abd9ad9}, !- Zone Air Exhaust Port List
  {0a0eac2b-49cf-4c4d-a206-e20e8b20976f}, !- Zone Air Node Name
  {cc2bc357-7b7a-46fc-84d9-81bc9d7ef4ce}, !- Zone Return Air Port List
  ,                                       !- Primary Daylighting Control Name
  ,                                       !- Fraction of Zone Controlled by Primary Daylighting Control
  ,                                       !- Secondary Daylighting Control Name
  ,                                       !- Fraction of Zone Controlled by Secondary Daylighting Control
  ,                                       !- Illuminance Map Name
  ,                                       !- Group Rendering Name
  ,                                       !- Thermostat Name
  No;                                     !- Use Ideal Air Loads

OS:Node,
  {6619f6b1-ff7d-4e80-8e89-5cd57db34c59}, !- Handle
  Node 2,                                 !- Name
  {0a0eac2b-49cf-4c4d-a206-e20e8b20976f}, !- Inlet Port
  ;                                       !- Outlet Port

OS:Connection,
  {0a0eac2b-49cf-4c4d-a206-e20e8b20976f}, !- Handle
  {dbe738ec-04bf-4e50-8f6c-4d3939e610ea}, !- Name
  {55dbf56e-7a88-4ccc-a101-d0c566ffee06}, !- Source Object
  11,                                     !- Outlet Port
  {6619f6b1-ff7d-4e80-8e89-5cd57db34c59}, !- Target Object
  2;                                      !- Inlet Port

OS:PortList,
  {8698ebb9-cf34-4105-8ecf-88c457444880}, !- Handle
  {ceb1ff56-897a-419d-a8ac-c56a41800c1c}, !- Name
  {55dbf56e-7a88-4ccc-a101-d0c566ffee06}; !- HVAC Component

OS:PortList,
  {ff1914ec-63ab-40ae-80fa-8c4c0abd9ad9}, !- Handle
  {9a4a3f1f-15b3-42d0-92a4-98a4d8721427}, !- Name
  {55dbf56e-7a88-4ccc-a101-d0c566ffee06}; !- HVAC Component

OS:PortList,
  {cc2bc357-7b7a-46fc-84d9-81bc9d7ef4ce}, !- Handle
  {fb9cf01e-750c-489a-b176-4e0bb9eb80f6}, !- Name
  {55dbf56e-7a88-4ccc-a101-d0c566ffee06}; !- HVAC Component

OS:Sizing:Zone,
  {c437d3c5-f701-4ed9-baef-8a65d466e1e2}, !- Handle
  {55dbf56e-7a88-4ccc-a101-d0c566ffee06}, !- Zone or ZoneList Name
  SupplyAirTemperature,                   !- Zone Cooling Design Supply Air Temperature Input Method
  14,                                     !- Zone Cooling Design Supply Air Temperature {C}
  11.11,                                  !- Zone Cooling Design Supply Air Temperature Difference {deltaC}
  SupplyAirTemperature,                   !- Zone Heating Design Supply Air Temperature Input Method
  40,                                     !- Zone Heating Design Supply Air Temperature {C}
  11.11,                                  !- Zone Heating Design Supply Air Temperature Difference {deltaC}
  0.0085,                                 !- Zone Cooling Design Supply Air Humidity Ratio {kg-H2O/kg-air}
  0.008,                                  !- Zone Heating Design Supply Air Humidity Ratio {kg-H2O/kg-air}
  ,                                       !- Zone Heating Sizing Factor
  ,                                       !- Zone Cooling Sizing Factor
  DesignDay,                              !- Cooling Design Air Flow Method
  ,                                       !- Cooling Design Air Flow Rate {m3/s}
  ,                                       !- Cooling Minimum Air Flow per Zone Floor Area {m3/s-m2}
  ,                                       !- Cooling Minimum Air Flow {m3/s}
  ,                                       !- Cooling Minimum Air Flow Fraction
  DesignDay,                              !- Heating Design Air Flow Method
  ,                                       !- Heating Design Air Flow Rate {m3/s}
  ,                                       !- Heating Maximum Air Flow per Zone Floor Area {m3/s-m2}
  ,                                       !- Heating Maximum Air Flow {m3/s}
  ,                                       !- Heating Maximum Air Flow Fraction
  ,                                       !- Design Zone Air Distribution Effectiveness in Cooling Mode
  ,                                       !- Design Zone Air Distribution Effectiveness in Heating Mode
  No,                                     !- Account for Dedicated Outdoor Air System
  NeutralSupplyAir,                       !- Dedicated Outdoor Air System Control Strategy
  autosize,                               !- Dedicated Outdoor Air Low Setpoint Temperature for Design {C}
  autosize;                               !- Dedicated Outdoor Air High Setpoint Temperature for Design {C}

OS:ZoneHVAC:EquipmentList,
  {f3897f34-b1ac-4911-808d-42e32b310e50}, !- Handle
  Zone HVAC Equipment List 2,             !- Name
  {55dbf56e-7a88-4ccc-a101-d0c566ffee06}, !- Thermal Zone
  ,                                       !- Load Distribution Scheme
  {81b07976-6d1f-45eb-8290-f15230199ef4}, !- Zone Equipment 1
  1,                                      !- Zone Equipment Cooling Sequence 1
  1,                                      !- Zone Equipment Heating or No-Load Sequence 1
  ,                                       !- Zone Equipment Sequential Cooling Fraction 1
  ;                                       !- Zone Equipment Sequential Heating Fraction 1

OS:Space,
  {89001993-7ac8-433e-a717-09b8a29397bf}, !- Handle
  living space|unit 2|story 1,            !- Name
  {fa94f9e0-b56f-4f6b-abfd-dd16ab1c243d}, !- Space Type Name
  ,                                       !- Default Construction Set Name
  ,                                       !- Default Schedule Set Name
  -0,                                     !- Direction of Relative North {deg}
  0,                                      !- X Origin {m}
  0,                                      !- Y Origin {m}
  0,                                      !- Z Origin {m}
  ,                                       !- Building Story Name
  {55dbf56e-7a88-4ccc-a101-d0c566ffee06}, !- Thermal Zone Name
  ,                                       !- Part of Total Floor Area
  ,                                       !- Design Specification Outdoor Air Object Name
  {273098d5-1252-485f-a0f5-66add6748cf6}; !- Building Unit Name

OS:Surface,
  {fcab2c0f-1ebd-4b1f-a34c-9ece4d14e176}, !- Handle
  Surface 12,                             !- Name
  Floor,                                  !- Surface Type
  ,                                       !- Construction Name
  {89001993-7ac8-433e-a717-09b8a29397bf}, !- Space Name
  Foundation,                             !- Outside Boundary Condition
  ,                                       !- Outside Boundary Condition Object
  NoSun,                                  !- Sun Exposure
  NoWind,                                 !- Wind Exposure
  ,                                       !- View Factor to Ground
  ,                                       !- Number of Vertices
  6.46578440716979, -12.9315688143396, 0, !- X,Y,Z Vertex 1 {m}
  6.46578440716979, 0, 0,                 !- X,Y,Z Vertex 2 {m}
  12.9315688143396, 0, 0,                 !- X,Y,Z Vertex 3 {m}
  12.9315688143396, -12.9315688143396, 0; !- X,Y,Z Vertex 4 {m}

OS:Surface,
  {bce5599d-4476-4fdb-b8c0-5a704bb4dfbe}, !- Handle
  Surface 13,                             !- Name
  Wall,                                   !- Surface Type
  ,                                       !- Construction Name
  {89001993-7ac8-433e-a717-09b8a29397bf}, !- Space Name
  Outdoors,                               !- Outside Boundary Condition
  ,                                       !- Outside Boundary Condition Object
  SunExposed,                             !- Sun Exposure
  WindExposed,                            !- Wind Exposure
  ,                                       !- View Factor to Ground
  ,                                       !- Number of Vertices
  12.9315688143396, 0, 2.4384,            !- X,Y,Z Vertex 1 {m}
  12.9315688143396, 0, 0,                 !- X,Y,Z Vertex 2 {m}
  6.46578440716979, 0, 0,                 !- X,Y,Z Vertex 3 {m}
  6.46578440716979, 0, 2.4384;            !- X,Y,Z Vertex 4 {m}

OS:Surface,
  {741377ce-35f8-47f6-9544-baf8a5100de8}, !- Handle
  Surface 14,                             !- Name
  Wall,                                   !- Surface Type
  ,                                       !- Construction Name
  {89001993-7ac8-433e-a717-09b8a29397bf}, !- Space Name
  Surface,                                !- Outside Boundary Condition
  {f49004eb-578e-408f-9af7-dafda47260a3}, !- Outside Boundary Condition Object
  NoSun,                                  !- Sun Exposure
  NoWind,                                 !- Wind Exposure
  ,                                       !- View Factor to Ground
  ,                                       !- Number of Vertices
  6.46578440716979, 0, 2.4384,            !- X,Y,Z Vertex 1 {m}
  6.46578440716979, 0, 0,                 !- X,Y,Z Vertex 2 {m}
  6.46578440716979, -12.9315688143396, 0, !- X,Y,Z Vertex 3 {m}
  6.46578440716979, -12.9315688143396, 2.4384; !- X,Y,Z Vertex 4 {m}

OS:Surface,
  {8af542ec-9049-47bb-aeb3-93173e97d351}, !- Handle
  Surface 15,                             !- Name
  Wall,                                   !- Surface Type
  ,                                       !- Construction Name
  {89001993-7ac8-433e-a717-09b8a29397bf}, !- Space Name
  Outdoors,                               !- Outside Boundary Condition
  ,                                       !- Outside Boundary Condition Object
  SunExposed,                             !- Sun Exposure
  WindExposed,                            !- Wind Exposure
  ,                                       !- View Factor to Ground
  ,                                       !- Number of Vertices
  6.46578440716979, -12.9315688143396, 2.4384, !- X,Y,Z Vertex 1 {m}
  6.46578440716979, -12.9315688143396, 0, !- X,Y,Z Vertex 2 {m}
  12.9315688143396, -12.9315688143396, 0, !- X,Y,Z Vertex 3 {m}
  12.9315688143396, -12.9315688143396, 2.4384; !- X,Y,Z Vertex 4 {m}

OS:Surface,
  {fbe2b8ec-cd3c-4e72-aff1-61f2cfd876dd}, !- Handle
  Surface 16,                             !- Name
  RoofCeiling,                            !- Surface Type
  ,                                       !- Construction Name
  {89001993-7ac8-433e-a717-09b8a29397bf}, !- Space Name
  Surface,                                !- Outside Boundary Condition
  {f4c432b3-2521-4a97-9ead-8eaa9a59861c}, !- Outside Boundary Condition Object
  NoSun,                                  !- Sun Exposure
  NoWind,                                 !- Wind Exposure
  ,                                       !- View Factor to Ground
  ,                                       !- Number of Vertices
  12.9315688143396, -12.9315688143396, 2.4384, !- X,Y,Z Vertex 1 {m}
  12.9315688143396, 0, 2.4384,            !- X,Y,Z Vertex 2 {m}
  6.46578440716979, 0, 2.4384,            !- X,Y,Z Vertex 3 {m}
  6.46578440716979, -12.9315688143396, 2.4384; !- X,Y,Z Vertex 4 {m}

OS:Surface,
  {c955943d-04ef-4cdf-9767-599002c3cce2}, !- Handle
  Surface 17,                             !- Name
  Wall,                                   !- Surface Type
  ,                                       !- Construction Name
  {89001993-7ac8-433e-a717-09b8a29397bf}, !- Space Name
  Surface,                                !- Outside Boundary Condition
  {3fa88422-0175-4ebc-99c9-06e68f9cd846}, !- Outside Boundary Condition Object
  NoSun,                                  !- Sun Exposure
  NoWind,                                 !- Wind Exposure
  ,                                       !- View Factor to Ground
  ,                                       !- Number of Vertices
  12.9315688143396, -12.9315688143396, 2.4384, !- X,Y,Z Vertex 1 {m}
  12.9315688143396, -12.9315688143396, 0, !- X,Y,Z Vertex 2 {m}
  12.9315688143396, 0, 0,                 !- X,Y,Z Vertex 3 {m}
  12.9315688143396, 0, 2.4384;            !- X,Y,Z Vertex 4 {m}

OS:ThermalZone,
  {0bfed77b-4273-4444-966c-526cf5eab4c4}, !- Handle
  living zone|unit 3,                     !- Name
  ,                                       !- Multiplier
  ,                                       !- Ceiling Height {m}
  ,                                       !- Volume {m3}
  ,                                       !- Floor Area {m2}
  ,                                       !- Zone Inside Convection Algorithm
  ,                                       !- Zone Outside Convection Algorithm
  ,                                       !- Zone Conditioning Equipment List Name
  {a1983bd7-3f98-41f3-abbc-7f446ed00134}, !- Zone Air Inlet Port List
  {cd0850d0-0d2e-4e6f-a8ad-47263b42fda8}, !- Zone Air Exhaust Port List
  {6d9d3f20-3c58-486e-9e74-e7dc1a1d4af2}, !- Zone Air Node Name
  {acb4e214-8185-4d97-a692-04474860d55c}, !- Zone Return Air Port List
  ,                                       !- Primary Daylighting Control Name
  ,                                       !- Fraction of Zone Controlled by Primary Daylighting Control
  ,                                       !- Secondary Daylighting Control Name
  ,                                       !- Fraction of Zone Controlled by Secondary Daylighting Control
  ,                                       !- Illuminance Map Name
  ,                                       !- Group Rendering Name
  ,                                       !- Thermostat Name
  No;                                     !- Use Ideal Air Loads

OS:Node,
  {c87f9e98-778c-444e-a768-69dc63ed6733}, !- Handle
  Node 3,                                 !- Name
  {6d9d3f20-3c58-486e-9e74-e7dc1a1d4af2}, !- Inlet Port
  ;                                       !- Outlet Port

OS:Connection,
  {6d9d3f20-3c58-486e-9e74-e7dc1a1d4af2}, !- Handle
  {33cbd626-881b-4673-b551-ccd5b47eceb0}, !- Name
  {0bfed77b-4273-4444-966c-526cf5eab4c4}, !- Source Object
  11,                                     !- Outlet Port
  {c87f9e98-778c-444e-a768-69dc63ed6733}, !- Target Object