!- NOTE: Auto-generated from /test/osw_files/SFA_10units_2story_UB_UA_3Beds_2Baths_Denver.osw

OS:Version,
  {e9582f40-2da9-4d2d-992e-c72b4306b485}, !- Handle
  2.9.0;                                  !- Version Identifier

OS:SimulationControl,
  {93ad5535-7fa1-4c67-85ac-f299d2eebe9f}, !- Handle
  ,                                       !- Do Zone Sizing Calculation
  ,                                       !- Do System Sizing Calculation
  ,                                       !- Do Plant Sizing Calculation
  No;                                     !- Run Simulation for Sizing Periods

OS:Timestep,
  {b9a143e1-190c-431f-b696-ece651056fd8}, !- Handle
  6;                                      !- Number of Timesteps per Hour

OS:ShadowCalculation,
  {10438093-126e-45f6-90e2-4b2665e0022a}, !- Handle
  20,                                     !- Calculation Frequency
  200;                                    !- Maximum Figures in Shadow Overlap Calculations

OS:SurfaceConvectionAlgorithm:Outside,
  {1f7de597-c1db-4e3c-b384-9be4c197dbb8}, !- Handle
  DOE-2;                                  !- Algorithm

OS:SurfaceConvectionAlgorithm:Inside,
  {68d50a39-8a52-41e3-9953-800cca7e88a9}, !- Handle
  TARP;                                   !- Algorithm

OS:ZoneCapacitanceMultiplier:ResearchSpecial,
  {03887d3c-0121-464b-a48f-72ee5a6c088b}, !- Handle
  ,                                       !- Temperature Capacity Multiplier
  15,                                     !- Humidity Capacity Multiplier
  ;                                       !- Carbon Dioxide Capacity Multiplier

OS:RunPeriod,
  {965e5381-0cee-4592-b319-c1f10b1a6d3b}, !- Handle
  Run Period 1,                           !- Name
  1,                                      !- Begin Month
  1,                                      !- Begin Day of Month
  12,                                     !- End Month
  31,                                     !- End Day of Month
  ,                                       !- Use Weather File Holidays and Special Days
  ,                                       !- Use Weather File Daylight Saving Period
  ,                                       !- Apply Weekend Holiday Rule
  ,                                       !- Use Weather File Rain Indicators
  ,                                       !- Use Weather File Snow Indicators
  ;                                       !- Number of Times Runperiod to be Repeated

OS:YearDescription,
  {37ac6f8a-42ba-4d35-b8c8-3795d5f45ee0}, !- Handle
  2007,                                   !- Calendar Year
  ,                                       !- Day of Week for Start Day
  ;                                       !- Is Leap Year

OS:ThermalZone,
  {7075c5f9-df69-4523-9bbb-69d9318a6ca0}, !- Handle
  living zone,                            !- Name
  ,                                       !- Multiplier
  ,                                       !- Ceiling Height {m}
  ,                                       !- Volume {m3}
  ,                                       !- Floor Area {m2}
  ,                                       !- Zone Inside Convection Algorithm
  ,                                       !- Zone Outside Convection Algorithm
  ,                                       !- Zone Conditioning Equipment List Name
  {50e24f05-10f3-430c-befc-9f08ca337767}, !- Zone Air Inlet Port List
  {b138f76b-4525-42ed-8bdd-dd1949632124}, !- Zone Air Exhaust Port List
  {540769e9-1529-4606-b1cc-e024e4e7cdb9}, !- Zone Air Node Name
  {a1770157-7fe7-4e92-b914-d4ca2a5f60a9}, !- Zone Return Air Port List
  ,                                       !- Primary Daylighting Control Name
  ,                                       !- Fraction of Zone Controlled by Primary Daylighting Control
  ,                                       !- Secondary Daylighting Control Name
  ,                                       !- Fraction of Zone Controlled by Secondary Daylighting Control
  ,                                       !- Illuminance Map Name
  ,                                       !- Group Rendering Name
  ,                                       !- Thermostat Name
  No;                                     !- Use Ideal Air Loads

OS:Node,
  {194ede8f-bc40-432d-9696-dfa35330faf9}, !- Handle
  Node 1,                                 !- Name
  {540769e9-1529-4606-b1cc-e024e4e7cdb9}, !- Inlet Port
  ;                                       !- Outlet Port

OS:Connection,
  {540769e9-1529-4606-b1cc-e024e4e7cdb9}, !- Handle
  {90530633-1c77-48c2-ad13-d247c6aeec99}, !- Name
  {7075c5f9-df69-4523-9bbb-69d9318a6ca0}, !- Source Object
  11,                                     !- Outlet Port
  {194ede8f-bc40-432d-9696-dfa35330faf9}, !- Target Object
  2;                                      !- Inlet Port

OS:PortList,
  {50e24f05-10f3-430c-befc-9f08ca337767}, !- Handle
  {62cc7940-ac28-4515-80d0-83e1bd5243c5}, !- Name
  {7075c5f9-df69-4523-9bbb-69d9318a6ca0}; !- HVAC Component

OS:PortList,
  {b138f76b-4525-42ed-8bdd-dd1949632124}, !- Handle
  {28910c65-1dfe-42c8-9d47-abc1d15cf3bf}, !- Name
  {7075c5f9-df69-4523-9bbb-69d9318a6ca0}; !- HVAC Component

OS:PortList,
  {a1770157-7fe7-4e92-b914-d4ca2a5f60a9}, !- Handle
  {bcd3ff78-9ceb-4db7-83c9-86dbc54a0e72}, !- Name
  {7075c5f9-df69-4523-9bbb-69d9318a6ca0}; !- HVAC Component

OS:Sizing:Zone,
  {06dac15a-01c8-4136-8493-4695b08189a6}, !- Handle
  {7075c5f9-df69-4523-9bbb-69d9318a6ca0}, !- Zone or ZoneList Name
  SupplyAirTemperature,                   !- Zone Cooling Design Supply Air Temperature Input Method
  14,                                     !- Zone Cooling Design Supply Air Temperature {C}
  11.11,                                  !- Zone Cooling Design Supply Air Temperature Difference {deltaC}
  SupplyAirTemperature,                   !- Zone Heating Design Supply Air Temperature Input Method
  40,                                     !- Zone Heating Design Supply Air Temperature {C}
  11.11,                                  !- Zone Heating Design Supply Air Temperature Difference {deltaC}
  0.0085,                                 !- Zone Cooling Design Supply Air Humidity Ratio {kg-H2O/kg-air}
  0.008,                                  !- Zone Heating Design Supply Air Humidity Ratio {kg-H2O/kg-air}
  ,                                       !- Zone Heating Sizing Factor
  ,                                       !- Zone Cooling Sizing Factor
  DesignDay,                              !- Cooling Design Air Flow Method
  ,                                       !- Cooling Design Air Flow Rate {m3/s}
  ,                                       !- Cooling Minimum Air Flow per Zone Floor Area {m3/s-m2}
  ,                                       !- Cooling Minimum Air Flow {m3/s}
  ,                                       !- Cooling Minimum Air Flow Fraction
  DesignDay,                              !- Heating Design Air Flow Method
  ,                                       !- Heating Design Air Flow Rate {m3/s}
  ,                                       !- Heating Maximum Air Flow per Zone Floor Area {m3/s-m2}
  ,                                       !- Heating Maximum Air Flow {m3/s}
  ,                                       !- Heating Maximum Air Flow Fraction
  ,                                       !- Design Zone Air Distribution Effectiveness in Cooling Mode
  ,                                       !- Design Zone Air Distribution Effectiveness in Heating Mode
  No,                                     !- Account for Dedicated Outdoor Air System
  NeutralSupplyAir,                       !- Dedicated Outdoor Air System Control Strategy
  autosize,                               !- Dedicated Outdoor Air Low Setpoint Temperature for Design {C}
  autosize;                               !- Dedicated Outdoor Air High Setpoint Temperature for Design {C}

OS:ZoneHVAC:EquipmentList,
  {b6d0d2e6-cbd4-4a63-8cca-a3597d349279}, !- Handle
  Zone HVAC Equipment List 1,             !- Name
  {7075c5f9-df69-4523-9bbb-69d9318a6ca0}; !- Thermal Zone

OS:Space,
  {21f203ac-02fe-495d-8225-6f141e267efc}, !- Handle
  living space,                           !- Name
  {460c4b17-6e48-4920-b97b-193623837fc2}, !- Space Type Name
  ,                                       !- Default Construction Set Name
  ,                                       !- Default Schedule Set Name
  ,                                       !- Direction of Relative North {deg}
  ,                                       !- X Origin {m}
  ,                                       !- Y Origin {m}
  ,                                       !- Z Origin {m}
  ,                                       !- Building Story Name
  {7075c5f9-df69-4523-9bbb-69d9318a6ca0}, !- Thermal Zone Name
  ,                                       !- Part of Total Floor Area
  ,                                       !- Design Specification Outdoor Air Object Name
  {0fef7bd1-94a6-4c49-996d-fc770912beb7}; !- Building Unit Name

OS:Surface,
  {63d1a99f-7371-40d6-9dcf-cfe6d5979544}, !- Handle
  Surface 1,                              !- Name
  Floor,                                  !- Surface Type
  ,                                       !- Construction Name
  {21f203ac-02fe-495d-8225-6f141e267efc}, !- Space Name
  Surface,                                !- Outside Boundary Condition
  {b3ec1b2d-d1c6-44fa-a193-e66de2ece822}, !- Outside Boundary Condition Object
  NoSun,                                  !- Sun Exposure
  NoWind,                                 !- Wind Exposure
  ,                                       !- View Factor to Ground
  ,                                       !- Number of Vertices
  0, -9.144, 0,                           !- X,Y,Z Vertex 1 {m}
  0, 0, 0,                                !- X,Y,Z Vertex 2 {m}
  4.572, 0, 0,                            !- X,Y,Z Vertex 3 {m}
  4.572, -9.144, 0;                       !- X,Y,Z Vertex 4 {m}

OS:Surface,
  {1dc5fae5-db1d-41ad-8dd0-5c3a131828eb}, !- Handle
  Surface 2,                              !- Name
  Wall,                                   !- Surface Type
  ,                                       !- Construction Name
  {21f203ac-02fe-495d-8225-6f141e267efc}, !- Space Name
  Outdoors,                               !- Outside Boundary Condition
  ,                                       !- Outside Boundary Condition Object
  SunExposed,                             !- Sun Exposure
  WindExposed,                            !- Wind Exposure
  ,                                       !- View Factor to Ground
  ,                                       !- Number of Vertices
  0, 0, 2.4384,                           !- X,Y,Z Vertex 1 {m}
  0, 0, 0,                                !- X,Y,Z Vertex 2 {m}
  0, -9.144, 0,                           !- X,Y,Z Vertex 3 {m}
  0, -9.144, 2.4384;                      !- X,Y,Z Vertex 4 {m}

OS:Surface,
  {50148782-1ef1-424c-82c7-1efc9faad4cb}, !- Handle
  Surface 3,                              !- Name
  Wall,                                   !- Surface Type
  ,                                       !- Construction Name
  {21f203ac-02fe-495d-8225-6f141e267efc}, !- Space Name
  Outdoors,                               !- Outside Boundary Condition
  ,                                       !- Outside Boundary Condition Object
  SunExposed,                             !- Sun Exposure
  WindExposed,                            !- Wind Exposure
  ,                                       !- View Factor to Ground
  ,                                       !- Number of Vertices
  4.572, 0, 2.4384,                       !- X,Y,Z Vertex 1 {m}
  4.572, 0, 0,                            !- X,Y,Z Vertex 2 {m}
  0, 0, 0,                                !- X,Y,Z Vertex 3 {m}
  0, 0, 2.4384;                           !- X,Y,Z Vertex 4 {m}

OS:Surface,
  {5511145f-7cc6-423b-9d7c-dea721cab5bc}, !- Handle
  Surface 4,                              !- Name
  Wall,                                   !- Surface Type
  ,                                       !- Construction Name
  {21f203ac-02fe-495d-8225-6f141e267efc}, !- Space Name
  Surface,                                !- Outside Boundary Condition
  {06e9ff9c-dbc5-4a15-956c-a973b6a99774}, !- Outside Boundary Condition Object
  NoSun,                                  !- Sun Exposure
  NoWind,                                 !- Wind Exposure
  ,                                       !- View Factor to Ground
  ,                                       !- Number of Vertices
  4.572, -9.144, 2.4384,                  !- X,Y,Z Vertex 1 {m}
  4.572, -9.144, 0,                       !- X,Y,Z Vertex 2 {m}
  4.572, 0, 0,                            !- X,Y,Z Vertex 3 {m}
  4.572, 0, 2.4384;                       !- X,Y,Z Vertex 4 {m}

OS:Surface,
  {8bbec9dc-0570-4f81-81e3-416c4de17f47}, !- Handle
  Surface 5,                              !- Name
  Wall,                                   !- Surface Type
  ,                                       !- Construction Name
  {21f203ac-02fe-495d-8225-6f141e267efc}, !- Space Name
  Outdoors,                               !- Outside Boundary Condition
  ,                                       !- Outside Boundary Condition Object
  SunExposed,                             !- Sun Exposure
  WindExposed,                            !- Wind Exposure
  ,                                       !- View Factor to Ground
  ,                                       !- Number of Vertices
  0, -9.144, 2.4384,                      !- X,Y,Z Vertex 1 {m}
  0, -9.144, 0,                           !- X,Y,Z Vertex 2 {m}
  4.572, -9.144, 0,                       !- X,Y,Z Vertex 3 {m}
  4.572, -9.144, 2.4384;                  !- X,Y,Z Vertex 4 {m}

OS:Surface,
  {6bd83daa-c414-44c5-9c57-18bd37a9c207}, !- Handle
  Surface 6,                              !- Name
  RoofCeiling,                            !- Surface Type
  ,                                       !- Construction Name
  {21f203ac-02fe-495d-8225-6f141e267efc}, !- Space Name
  Surface,                                !- Outside Boundary Condition
  {5223a5ec-7efa-4e24-971c-8e4e19843a45}, !- Outside Boundary Condition Object
  NoSun,                                  !- Sun Exposure
  NoWind,                                 !- Wind Exposure
  ,                                       !- View Factor to Ground
  ,                                       !- Number of Vertices
  4.572, -9.144, 2.4384,                  !- X,Y,Z Vertex 1 {m}
  4.572, 0, 2.4384,                       !- X,Y,Z Vertex 2 {m}
  0, 0, 2.4384,                           !- X,Y,Z Vertex 3 {m}
  0, -9.144, 2.4384;                      !- X,Y,Z Vertex 4 {m}

OS:SpaceType,
  {460c4b17-6e48-4920-b97b-193623837fc2}, !- Handle
  Space Type 1,                           !- Name
  ,                                       !- Default Construction Set Name
  ,                                       !- Default Schedule Set Name
  ,                                       !- Group Rendering Name
  ,                                       !- Design Specification Outdoor Air Object Name
  ,                                       !- Standards Template
  ,                                       !- Standards Building Type
  living;                                 !- Standards Space Type

OS:Space,
  {c42ddcda-a1fa-49d8-999a-f302825e3709}, !- Handle
  living space|story 2,                   !- Name
  {460c4b17-6e48-4920-b97b-193623837fc2}, !- Space Type Name
  ,                                       !- Default Construction Set Name
  ,                                       !- Default Schedule Set Name
  -0,                                     !- Direction of Relative North {deg}
  0,                                      !- X Origin {m}
  0,                                      !- Y Origin {m}
  2.4384,                                 !- Z Origin {m}
  ,                                       !- Building Story Name
  {7075c5f9-df69-4523-9bbb-69d9318a6ca0}, !- Thermal Zone Name
  ,                                       !- Part of Total Floor Area
  ,                                       !- Design Specification Outdoor Air Object Name
  {0fef7bd1-94a6-4c49-996d-fc770912beb7}; !- Building Unit Name

OS:Surface,
  {5223a5ec-7efa-4e24-971c-8e4e19843a45}, !- Handle
  Surface 7,                              !- Name
  Floor,                                  !- Surface Type
  ,                                       !- Construction Name
  {c42ddcda-a1fa-49d8-999a-f302825e3709}, !- Space Name
  Surface,                                !- Outside Boundary Condition
  {6bd83daa-c414-44c5-9c57-18bd37a9c207}, !- Outside Boundary Condition Object
  NoSun,                                  !- Sun Exposure
  NoWind,                                 !- Wind Exposure
  ,                                       !- View Factor to Ground
  ,                                       !- Number of Vertices
  0, -9.144, 0,                           !- X,Y,Z Vertex 1 {m}
  0, 0, 0,                                !- X,Y,Z Vertex 2 {m}
  4.572, 0, 0,                            !- X,Y,Z Vertex 3 {m}
  4.572, -9.144, 0;                       !- X,Y,Z Vertex 4 {m}

OS:Surface,
  {c106e247-9c8b-4000-bdf2-8bb6cadd1e08}, !- Handle
  Surface 8,                              !- Name
  Wall,                                   !- Surface Type
  ,                                       !- Construction Name
  {c42ddcda-a1fa-49d8-999a-f302825e3709}, !- Space Name
  Outdoors,                               !- Outside Boundary Condition
  ,                                       !- Outside Boundary Condition Object
  SunExposed,                             !- Sun Exposure
  WindExposed,                            !- Wind Exposure
  ,                                       !- View Factor to Ground
  ,                                       !- Number of Vertices
  4.572, 0, 2.4384,                       !- X,Y,Z Vertex 1 {m}
  4.572, 0, 0,                            !- X,Y,Z Vertex 2 {m}
  0, 0, 0,                                !- X,Y,Z Vertex 3 {m}
  0, 0, 2.4384;                           !- X,Y,Z Vertex 4 {m}

OS:Surface,
  {592dc003-6841-442b-9b65-620ca730c0f5}, !- Handle
  Surface 9,                              !- Name
  Wall,                                   !- Surface Type
  ,                                       !- Construction Name
  {c42ddcda-a1fa-49d8-999a-f302825e3709}, !- Space Name
  Outdoors,                               !- Outside Boundary Condition
  ,                                       !- Outside Boundary Condition Object
  SunExposed,                             !- Sun Exposure
  WindExposed,                            !- Wind Exposure
  ,                                       !- View Factor to Ground
  ,                                       !- Number of Vertices
  0, -9.144, 2.4384,                      !- X,Y,Z Vertex 1 {m}
  0, -9.144, 0,                           !- X,Y,Z Vertex 2 {m}
  4.572, -9.144, 0,                       !- X,Y,Z Vertex 3 {m}
  4.572, -9.144, 2.4384;                  !- X,Y,Z Vertex 4 {m}

OS:Surface,
  {e04628fa-26f7-4613-bbfc-676134a37a69}, !- Handle
  Surface 10,                             !- Name
  Wall,                                   !- Surface Type
  ,                                       !- Construction Name
  {c42ddcda-a1fa-49d8-999a-f302825e3709}, !- Space Name
  Surface,                                !- Outside Boundary Condition
  {c3e1da8d-5bab-468e-bed7-e1d7b21e84a2}, !- Outside Boundary Condition Object
  NoSun,                                  !- Sun Exposure
  NoWind,                                 !- Wind Exposure
  ,                                       !- View Factor to Ground
  ,                                       !- Number of Vertices
  4.572, -9.144, 2.4384,                  !- X,Y,Z Vertex 1 {m}
  4.572, -9.144, 0,                       !- X,Y,Z Vertex 2 {m}
  4.572, 0, 0,                            !- X,Y,Z Vertex 3 {m}
  4.572, 0, 2.4384;                       !- X,Y,Z Vertex 4 {m}

OS:Surface,
  {ce44d453-cd94-4337-81e3-87d1ef40fa41}, !- Handle
  Surface 11,                             !- Name
  RoofCeiling,                            !- Surface Type
  ,                                       !- Construction Name
  {c42ddcda-a1fa-49d8-999a-f302825e3709}, !- Space Name
  Surface,                                !- Outside Boundary Condition
  {ba23be84-dea6-4d83-ace1-3fd66b5f7b07}, !- Outside Boundary Condition Object
  NoSun,                                  !- Sun Exposure
  NoWind,                                 !- Wind Exposure
  ,                                       !- View Factor to Ground
  ,                                       !- Number of Vertices
  4.572, -9.144, 2.4384,                  !- X,Y,Z Vertex 1 {m}
  4.572, 0, 2.4384,                       !- X,Y,Z Vertex 2 {m}
  0, 0, 2.4384,                           !- X,Y,Z Vertex 3 {m}
  0, -9.144, 2.4384;                      !- X,Y,Z Vertex 4 {m}

OS:Surface,
  {e59e587d-af5c-4265-a22d-c7717ef3763b}, !- Handle
  Surface 12,                             !- Name
  Wall,                                   !- Surface Type
  ,                                       !- Construction Name
  {c42ddcda-a1fa-49d8-999a-f302825e3709}, !- Space Name
  Outdoors,                               !- Outside Boundary Condition
  ,                                       !- Outside Boundary Condition Object
  SunExposed,                             !- Sun Exposure
  WindExposed,                            !- Wind Exposure
  ,                                       !- View Factor to Ground
  ,                                       !- Number of Vertices
  0, 0, 2.4384,                           !- X,Y,Z Vertex 1 {m}
  0, 0, 0,                                !- X,Y,Z Vertex 2 {m}
  0, -9.144, 0,                           !- X,Y,Z Vertex 3 {m}
  0, -9.144, 2.4384;                      !- X,Y,Z Vertex 4 {m}

OS:ThermalZone,
  {f9f6a3f6-bb3c-47cb-8a4b-dc36b8e99c22}, !- Handle
  living zone|unit 2,                     !- Name
  ,                                       !- Multiplier
  ,                                       !- Ceiling Height {m}
  ,                                       !- Volume {m3}
  ,                                       !- Floor Area {m2}
  ,                                       !- Zone Inside Convection Algorithm
  ,                                       !- Zone Outside Convection Algorithm
  ,                                       !- Zone Conditioning Equipment List Name
  {9c253b27-9a41-4230-aa89-b3cac41a81e1}, !- Zone Air Inlet Port List
  {66e725ab-4085-4309-a2b7-620673e7d5f5}, !- Zone Air Exhaust Port List
  {af5dc6bf-3419-4aab-adbe-b0eaca55864f}, !- Zone Air Node Name
  {193ba07a-d579-4d8b-a496-c377e7fdb506}, !- Zone Return Air Port List
  ,                                       !- Primary Daylighting Control Name
  ,                                       !- Fraction of Zone Controlled by Primary Daylighting Control
  ,                                       !- Secondary Daylighting Control Name
  ,                                       !- Fraction of Zone Controlled by Secondary Daylighting Control
  ,                                       !- Illuminance Map Name
  ,                                       !- Group Rendering Name
  ,                                       !- Thermostat Name
  No;                                     !- Use Ideal Air Loads

OS:Node,
  {6773c708-5561-441d-8de7-b22da81ebee0}, !- Handle
  Node 2,                                 !- Name
  {af5dc6bf-3419-4aab-adbe-b0eaca55864f}, !- Inlet Port
  ;                                       !- Outlet Port

OS:Connection,
  {af5dc6bf-3419-4aab-adbe-b0eaca55864f}, !- Handle
  {e9146e72-df87-40b3-a9af-4d02fa0371d7}, !- Name
  {f9f6a3f6-bb3c-47cb-8a4b-dc36b8e99c22}, !- Source Object
  11,                                     !- Outlet Port
  {6773c708-5561-441d-8de7-b22da81ebee0}, !- Target Object
  2;                                      !- Inlet Port

OS:PortList,
  {9c253b27-9a41-4230-aa89-b3cac41a81e1}, !- Handle
  {23e678ad-0686-4aeb-b46a-81ba4e2975f3}, !- Name
  {f9f6a3f6-bb3c-47cb-8a4b-dc36b8e99c22}; !- HVAC Component

OS:PortList,
  {66e725ab-4085-4309-a2b7-620673e7d5f5}, !- Handle
  {69cc9ebc-85b2-4b0b-8668-879c0c93fb61}, !- Name
  {f9f6a3f6-bb3c-47cb-8a4b-dc36b8e99c22}; !- HVAC Component

OS:PortList,
  {193ba07a-d579-4d8b-a496-c377e7fdb506}, !- Handle
  {9a45a5c7-f356-4c06-8ebb-8c0e198ff51b}, !- Name
  {f9f6a3f6-bb3c-47cb-8a4b-dc36b8e99c22}; !- HVAC Component

OS:Sizing:Zone,
  {c789aac5-6f5f-4ba5-9049-f162610cb3a7}, !- Handle
  {f9f6a3f6-bb3c-47cb-8a4b-dc36b8e99c22}, !- Zone or ZoneList Name
  SupplyAirTemperature,                   !- Zone Cooling Design Supply Air Temperature Input Method
  14,                                     !- Zone Cooling Design Supply Air Temperature {C}
  11.11,                                  !- Zone Cooling Design Supply Air Temperature Difference {deltaC}
  SupplyAirTemperature,                   !- Zone Heating Design Supply Air Temperature Input Method
  40,                                     !- Zone Heating Design Supply Air Temperature {C}
  11.11,                                  !- Zone Heating Design Supply Air Temperature Difference {deltaC}
  0.0085,                                 !- Zone Cooling Design Supply Air Humidity Ratio {kg-H2O/kg-air}
  0.008,                                  !- Zone Heating Design Supply Air Humidity Ratio {kg-H2O/kg-air}
  ,                                       !- Zone Heating Sizing Factor
  ,                                       !- Zone Cooling Sizing Factor
  DesignDay,                              !- Cooling Design Air Flow Method
  ,                                       !- Cooling Design Air Flow Rate {m3/s}
  ,                                       !- Cooling Minimum Air Flow per Zone Floor Area {m3/s-m2}
  ,                                       !- Cooling Minimum Air Flow {m3/s}
  ,                                       !- Cooling Minimum Air Flow Fraction
  DesignDay,                              !- Heating Design Air Flow Method
  ,                                       !- Heating Design Air Flow Rate {m3/s}
  ,                                       !- Heating Maximum Air Flow per Zone Floor Area {m3/s-m2}
  ,                                       !- Heating Maximum Air Flow {m3/s}
  ,                                       !- Heating Maximum Air Flow Fraction
  ,                                       !- Design Zone Air Distribution Effectiveness in Cooling Mode
  ,                                       !- Design Zone Air Distribution Effectiveness in Heating Mode
  No,                                     !- Account for Dedicated Outdoor Air System
  NeutralSupplyAir,                       !- Dedicated Outdoor Air System Control Strategy
  autosize,                               !- Dedicated Outdoor Air Low Setpoint Temperature for Design {C}
  autosize;                               !- Dedicated Outdoor Air High Setpoint Temperature for Design {C}

OS:ZoneHVAC:EquipmentList,
  {35b4f3c0-944e-4e26-b24f-8da3878ceb01}, !- Handle
  Zone HVAC Equipment List 2,             !- Name
  {f9f6a3f6-bb3c-47cb-8a4b-dc36b8e99c22}; !- Thermal Zone

OS:Space,
  {6ca284c4-1140-40b2-8f06-2ada6772291a}, !- Handle
  living space|unit 2|story 1,            !- Name
  {460c4b17-6e48-4920-b97b-193623837fc2}, !- Space Type Name
  ,                                       !- Default Construction Set Name
  ,                                       !- Default Schedule Set Name
  -0,                                     !- Direction of Relative North {deg}
  0,                                      !- X Origin {m}
  0,                                      !- Y Origin {m}
  0,                                      !- Z Origin {m}
  ,                                       !- Building Story Name
  {f9f6a3f6-bb3c-47cb-8a4b-dc36b8e99c22}, !- Thermal Zone Name
  ,                                       !- Part of Total Floor Area
  ,                                       !- Design Specification Outdoor Air Object Name
  {62b2656b-c6d4-41e9-9273-c0e0b2834966}; !- Building Unit Name

OS:Surface,
  {2623891b-db77-4201-bd55-fa869c35669c}, !- Handle
  Surface 18,                             !- Name
  Floor,                                  !- Surface Type
  ,                                       !- Construction Name
  {6ca284c4-1140-40b2-8f06-2ada6772291a}, !- Space Name
  Surface,                                !- Outside Boundary Condition
  {3e725d98-ab59-4274-bdf1-638c01d3f8c2}, !- Outside Boundary Condition Object
  NoSun,                                  !- Sun Exposure
  NoWind,                                 !- Wind Exposure
  ,                                       !- View Factor to Ground
  ,                                       !- Number of Vertices
  4.572, -9.144, 0,                       !- X,Y,Z Vertex 1 {m}
  4.572, 0, 0,                            !- X,Y,Z Vertex 2 {m}
  9.144, 0, 0,                            !- X,Y,Z Vertex 3 {m}
  9.144, -9.144, 0;                       !- X,Y,Z Vertex 4 {m}

OS:Surface,
  {e97013e5-04bd-4bfd-b57e-55e039a964ce}, !- Handle
  Surface 19,                             !- Name
  Wall,                                   !- Surface Type
  ,                                       !- Construction Name
  {6ca284c4-1140-40b2-8f06-2ada6772291a}, !- Space Name
  Outdoors,                               !- Outside Boundary Condition
  ,                                       !- Outside Boundary Condition Object
  SunExposed,                             !- Sun Exposure
  WindExposed,                            !- Wind Exposure
  ,                                       !- View Factor to Ground
  ,                                       !- Number of Vertices
  9.144, 0, 2.4384,                       !- X,Y,Z Vertex 1 {m}
  9.144, 0, 0,                            !- X,Y,Z Vertex 2 {m}
  4.572, 0, 0,                            !- X,Y,Z Vertex 3 {m}
  4.572, 0, 2.4384;                       !- X,Y,Z Vertex 4 {m}

OS:Surface,