!- NOTE: Auto-generated from /test/osw_files/SFA_4units_1story_FB_UA_Denver.osw

OS:Version,
  {592c9167-b9a0-4ffb-84f2-8626fb891446}, !- Handle
  2.9.1;                                  !- Version Identifier

OS:SimulationControl,
  {86443734-50e7-4374-a775-4e8dd8951cf6}, !- Handle
  ,                                       !- Do Zone Sizing Calculation
  ,                                       !- Do System Sizing Calculation
  ,                                       !- Do Plant Sizing Calculation
  No;                                     !- Run Simulation for Sizing Periods

OS:Timestep,
  {bc984baa-7773-401c-8f55-82ba1edbafef}, !- Handle
  6;                                      !- Number of Timesteps per Hour

OS:ShadowCalculation,
  {5839b849-95f0-4aea-9849-bc7d8ebb173c}, !- Handle
  20,                                     !- Calculation Frequency
  200;                                    !- Maximum Figures in Shadow Overlap Calculations

OS:SurfaceConvectionAlgorithm:Outside,
  {15f0ec83-97dd-45ee-a788-fbc0d8d0ef26}, !- Handle
  DOE-2;                                  !- Algorithm

OS:SurfaceConvectionAlgorithm:Inside,
  {c16236c9-85c3-4050-8ba2-033027247cc2}, !- Handle
  TARP;                                   !- Algorithm

OS:ZoneCapacitanceMultiplier:ResearchSpecial,
  {dfb71a5b-4f31-4e4c-8008-9bde1521f1ee}, !- Handle
  ,                                       !- Temperature Capacity Multiplier
  15,                                     !- Humidity Capacity Multiplier
  ;                                       !- Carbon Dioxide Capacity Multiplier

OS:RunPeriod,
  {b6f32a22-34e1-4f79-8f5c-3f92754ad93a}, !- Handle
  Run Period 1,                           !- Name
  1,                                      !- Begin Month
  1,                                      !- Begin Day of Month
  12,                                     !- End Month
  31,                                     !- End Day of Month
  ,                                       !- Use Weather File Holidays and Special Days
  ,                                       !- Use Weather File Daylight Saving Period
  ,                                       !- Apply Weekend Holiday Rule
  ,                                       !- Use Weather File Rain Indicators
  ,                                       !- Use Weather File Snow Indicators
  ;                                       !- Number of Times Runperiod to be Repeated

OS:YearDescription,
  {77d87837-e65d-4ad0-a48d-4e5e723db665}, !- Handle
  2007,                                   !- Calendar Year
  ,                                       !- Day of Week for Start Day
  ;                                       !- Is Leap Year

OS:ThermalZone,
  {ded23754-fa99-4915-a630-1a61f273bdd4}, !- Handle
  living zone,                            !- Name
  ,                                       !- Multiplier
  ,                                       !- Ceiling Height {m}
  ,                                       !- Volume {m3}
  ,                                       !- Floor Area {m2}
  ,                                       !- Zone Inside Convection Algorithm
  ,                                       !- Zone Outside Convection Algorithm
  ,                                       !- Zone Conditioning Equipment List Name
  {46ed5c2a-0833-4301-af05-254d0171484a}, !- Zone Air Inlet Port List
  {12ea552f-bc28-4174-9f98-23a51b8c6583}, !- Zone Air Exhaust Port List
  {0f77d819-2b8f-47dc-a75d-fed387aea0f2}, !- Zone Air Node Name
  {483cfb2e-192a-40c0-856f-387c9382c566}, !- Zone Return Air Port List
  ,                                       !- Primary Daylighting Control Name
  ,                                       !- Fraction of Zone Controlled by Primary Daylighting Control
  ,                                       !- Secondary Daylighting Control Name
  ,                                       !- Fraction of Zone Controlled by Secondary Daylighting Control
  ,                                       !- Illuminance Map Name
  ,                                       !- Group Rendering Name
  ,                                       !- Thermostat Name
  No;                                     !- Use Ideal Air Loads

OS:Node,
  {31b10664-472a-42ea-82c0-b72c87bd0aca}, !- Handle
  Node 1,                                 !- Name
  {0f77d819-2b8f-47dc-a75d-fed387aea0f2}, !- Inlet Port
  ;                                       !- Outlet Port

OS:Connection,
  {0f77d819-2b8f-47dc-a75d-fed387aea0f2}, !- Handle
  {ef1be126-6504-4910-b622-11500f58932f}, !- Name
  {ded23754-fa99-4915-a630-1a61f273bdd4}, !- Source Object
  11,                                     !- Outlet Port
  {31b10664-472a-42ea-82c0-b72c87bd0aca}, !- Target Object
  2;                                      !- Inlet Port

OS:PortList,
  {46ed5c2a-0833-4301-af05-254d0171484a}, !- Handle
  {1a84b3b7-5587-450b-b823-be915a751b96}, !- Name
  {ded23754-fa99-4915-a630-1a61f273bdd4}; !- HVAC Component

OS:PortList,
  {12ea552f-bc28-4174-9f98-23a51b8c6583}, !- Handle
  {b81f7194-cd5a-4742-933c-1ee69816fccc}, !- Name
  {ded23754-fa99-4915-a630-1a61f273bdd4}; !- HVAC Component

OS:PortList,
  {483cfb2e-192a-40c0-856f-387c9382c566}, !- Handle
  {7a8d94fc-ce85-4ec1-9a9d-0ab4dec8dc44}, !- Name
  {ded23754-fa99-4915-a630-1a61f273bdd4}; !- HVAC Component

OS:Sizing:Zone,
  {334e2e90-c092-4fb8-8a0c-39d4b63dedf4}, !- Handle
  {ded23754-fa99-4915-a630-1a61f273bdd4}, !- Zone or ZoneList Name
  SupplyAirTemperature,                   !- Zone Cooling Design Supply Air Temperature Input Method
  14,                                     !- Zone Cooling Design Supply Air Temperature {C}
  11.11,                                  !- Zone Cooling Design Supply Air Temperature Difference {deltaC}
  SupplyAirTemperature,                   !- Zone Heating Design Supply Air Temperature Input Method
  40,                                     !- Zone Heating Design Supply Air Temperature {C}
  11.11,                                  !- Zone Heating Design Supply Air Temperature Difference {deltaC}
  0.0085,                                 !- Zone Cooling Design Supply Air Humidity Ratio {kg-H2O/kg-air}
  0.008,                                  !- Zone Heating Design Supply Air Humidity Ratio {kg-H2O/kg-air}
  ,                                       !- Zone Heating Sizing Factor
  ,                                       !- Zone Cooling Sizing Factor
  DesignDay,                              !- Cooling Design Air Flow Method
  ,                                       !- Cooling Design Air Flow Rate {m3/s}
  ,                                       !- Cooling Minimum Air Flow per Zone Floor Area {m3/s-m2}
  ,                                       !- Cooling Minimum Air Flow {m3/s}
  ,                                       !- Cooling Minimum Air Flow Fraction
  DesignDay,                              !- Heating Design Air Flow Method
  ,                                       !- Heating Design Air Flow Rate {m3/s}
  ,                                       !- Heating Maximum Air Flow per Zone Floor Area {m3/s-m2}
  ,                                       !- Heating Maximum Air Flow {m3/s}
  ,                                       !- Heating Maximum Air Flow Fraction
  ,                                       !- Design Zone Air Distribution Effectiveness in Cooling Mode
  ,                                       !- Design Zone Air Distribution Effectiveness in Heating Mode
  No,                                     !- Account for Dedicated Outdoor Air System
  NeutralSupplyAir,                       !- Dedicated Outdoor Air System Control Strategy
  autosize,                               !- Dedicated Outdoor Air Low Setpoint Temperature for Design {C}
  autosize;                               !- Dedicated Outdoor Air High Setpoint Temperature for Design {C}

OS:ZoneHVAC:EquipmentList,
  {e2a325a3-e2f0-4dde-8fdc-9d060e455928}, !- Handle
  Zone HVAC Equipment List 1,             !- Name
  {ded23754-fa99-4915-a630-1a61f273bdd4}; !- Thermal Zone

OS:Space,
  {95c61ab3-e6fb-42b8-a79d-a1bdc777cbeb}, !- Handle
  living space,                           !- Name
  {fe3e21d6-32f2-4b7d-8e33-c75a9ff76fb7}, !- Space Type Name
  ,                                       !- Default Construction Set Name
  ,                                       !- Default Schedule Set Name
  ,                                       !- Direction of Relative North {deg}
  ,                                       !- X Origin {m}
  ,                                       !- Y Origin {m}
  ,                                       !- Z Origin {m}
  ,                                       !- Building Story Name
  {ded23754-fa99-4915-a630-1a61f273bdd4}, !- Thermal Zone Name
  ,                                       !- Part of Total Floor Area
  ,                                       !- Design Specification Outdoor Air Object Name
  {3ef6caea-e3fd-4327-aada-843a79d10760}; !- Building Unit Name

OS:Surface,
  {5bbcd02e-dfcf-46e8-924c-46c4a933ce8f}, !- Handle
  Surface 1,                              !- Name
  Floor,                                  !- Surface Type
  ,                                       !- Construction Name
  {95c61ab3-e6fb-42b8-a79d-a1bdc777cbeb}, !- Space Name
  Surface,                                !- Outside Boundary Condition
  {79355a5c-bed0-4e9b-ab3e-58f84def0270}, !- Outside Boundary Condition Object
  NoSun,                                  !- Sun Exposure
  NoWind,                                 !- Wind Exposure
  ,                                       !- View Factor to Ground
  ,                                       !- Number of Vertices
  0, -9.144, 0,                           !- X,Y,Z Vertex 1 {m}
  0, 0, 0,                                !- X,Y,Z Vertex 2 {m}
  4.572, 0, 0,                            !- X,Y,Z Vertex 3 {m}
  4.572, -9.144, 0;                       !- X,Y,Z Vertex 4 {m}

OS:Surface,
  {fcbbce5b-bb88-4fa2-9b61-a90a7cfdfe64}, !- Handle
  Surface 2,                              !- Name
  Wall,                                   !- Surface Type
  ,                                       !- Construction Name
  {95c61ab3-e6fb-42b8-a79d-a1bdc777cbeb}, !- Space Name
  Outdoors,                               !- Outside Boundary Condition
  ,                                       !- Outside Boundary Condition Object
  SunExposed,                             !- Sun Exposure
  WindExposed,                            !- Wind Exposure
  ,                                       !- View Factor to Ground
  ,                                       !- Number of Vertices
  0, 0, 2.4384,                           !- X,Y,Z Vertex 1 {m}
  0, 0, 0,                                !- X,Y,Z Vertex 2 {m}
  0, -9.144, 0,                           !- X,Y,Z Vertex 3 {m}
  0, -9.144, 2.4384;                      !- X,Y,Z Vertex 4 {m}

OS:Surface,
  {00171ad8-1c24-40ac-92b2-f0adb1205495}, !- Handle
  Surface 3,                              !- Name
  Wall,                                   !- Surface Type
  ,                                       !- Construction Name
  {95c61ab3-e6fb-42b8-a79d-a1bdc777cbeb}, !- Space Name
  Outdoors,                               !- Outside Boundary Condition
  ,                                       !- Outside Boundary Condition Object
  SunExposed,                             !- Sun Exposure
  WindExposed,                            !- Wind Exposure
  ,                                       !- View Factor to Ground
  ,                                       !- Number of Vertices
  4.572, 0, 2.4384,                       !- X,Y,Z Vertex 1 {m}
  4.572, 0, 0,                            !- X,Y,Z Vertex 2 {m}
  0, 0, 0,                                !- X,Y,Z Vertex 3 {m}
  0, 0, 2.4384;                           !- X,Y,Z Vertex 4 {m}

OS:Surface,
  {7aad6ca9-3588-4af9-b1da-26c787046392}, !- Handle
  Surface 4,                              !- Name
  Wall,                                   !- Surface Type
  ,                                       !- Construction Name
  {95c61ab3-e6fb-42b8-a79d-a1bdc777cbeb}, !- Space Name
  Surface,                                !- Outside Boundary Condition
  {5cc6d89d-d72e-4ef7-b3b2-e89b3bc6e0fb}, !- Outside Boundary Condition Object
  NoSun,                                  !- Sun Exposure
  NoWind,                                 !- Wind Exposure
  ,                                       !- View Factor to Ground
  ,                                       !- Number of Vertices
  4.572, -9.144, 2.4384,                  !- X,Y,Z Vertex 1 {m}
  4.572, -9.144, 0,                       !- X,Y,Z Vertex 2 {m}
  4.572, 0, 0,                            !- X,Y,Z Vertex 3 {m}
  4.572, 0, 2.4384;                       !- X,Y,Z Vertex 4 {m}

OS:Surface,
  {7f0fe125-0a4b-44e7-938a-04a2dcd08f92}, !- Handle
  Surface 5,                              !- Name
  Wall,                                   !- Surface Type
  ,                                       !- Construction Name
  {95c61ab3-e6fb-42b8-a79d-a1bdc777cbeb}, !- Space Name
  Outdoors,                               !- Outside Boundary Condition
  ,                                       !- Outside Boundary Condition Object
  SunExposed,                             !- Sun Exposure
  WindExposed,                            !- Wind Exposure
  ,                                       !- View Factor to Ground
  ,                                       !- Number of Vertices
  0, -9.144, 2.4384,                      !- X,Y,Z Vertex 1 {m}
  0, -9.144, 0,                           !- X,Y,Z Vertex 2 {m}
  4.572, -9.144, 0,                       !- X,Y,Z Vertex 3 {m}
  4.572, -9.144, 2.4384;                  !- X,Y,Z Vertex 4 {m}

OS:Surface,
  {6f976c6e-b687-4315-9db0-a2fcc32663de}, !- Handle
  Surface 6,                              !- Name
  RoofCeiling,                            !- Surface Type
  ,                                       !- Construction Name
  {95c61ab3-e6fb-42b8-a79d-a1bdc777cbeb}, !- Space Name
  Surface,                                !- Outside Boundary Condition
  {694eb095-cc2c-4778-af2a-f4fcd5abeae5}, !- Outside Boundary Condition Object
  NoSun,                                  !- Sun Exposure
  NoWind,                                 !- Wind Exposure
  ,                                       !- View Factor to Ground
  ,                                       !- Number of Vertices
  4.572, -9.144, 2.4384,                  !- X,Y,Z Vertex 1 {m}
  4.572, 0, 2.4384,                       !- X,Y,Z Vertex 2 {m}
  0, 0, 2.4384,                           !- X,Y,Z Vertex 3 {m}
  0, -9.144, 2.4384;                      !- X,Y,Z Vertex 4 {m}

OS:SpaceType,
  {fe3e21d6-32f2-4b7d-8e33-c75a9ff76fb7}, !- Handle
  Space Type 1,                           !- Name
  ,                                       !- Default Construction Set Name
  ,                                       !- Default Schedule Set Name
  ,                                       !- Group Rendering Name
  ,                                       !- Design Specification Outdoor Air Object Name
  ,                                       !- Standards Template
  ,                                       !- Standards Building Type
  living;                                 !- Standards Space Type

OS:ThermalZone,
  {acf5e840-7e96-4d23-a11f-bb58ff577983}, !- Handle
  living zone|unit 2,                     !- Name
  ,                                       !- Multiplier
  ,                                       !- Ceiling Height {m}
  ,                                       !- Volume {m3}
  ,                                       !- Floor Area {m2}
  ,                                       !- Zone Inside Convection Algorithm
  ,                                       !- Zone Outside Convection Algorithm
  ,                                       !- Zone Conditioning Equipment List Name
  {a5b75101-eb63-4d8a-a01a-d6c25f71f92a}, !- Zone Air Inlet Port List
  {a9c12295-5888-4940-a135-08fd51a3a085}, !- Zone Air Exhaust Port List
  {ea6bcb28-7a65-45cb-b382-5ffd48efdbfc}, !- Zone Air Node Name
  {d85108ec-d78d-4a47-8f0a-3530456e6692}, !- Zone Return Air Port List
  ,                                       !- Primary Daylighting Control Name
  ,                                       !- Fraction of Zone Controlled by Primary Daylighting Control
  ,                                       !- Secondary Daylighting Control Name
  ,                                       !- Fraction of Zone Controlled by Secondary Daylighting Control
  ,                                       !- Illuminance Map Name
  ,                                       !- Group Rendering Name
  ,                                       !- Thermostat Name
  No;                                     !- Use Ideal Air Loads

OS:Node,
  {1d1117b3-77e2-4253-9974-be06f8da6380}, !- Handle
  Node 2,                                 !- Name
  {ea6bcb28-7a65-45cb-b382-5ffd48efdbfc}, !- Inlet Port
  ;                                       !- Outlet Port

OS:Connection,
  {ea6bcb28-7a65-45cb-b382-5ffd48efdbfc}, !- Handle
  {6a6b89ce-2ade-4945-8388-4b4adc228dd5}, !- Name
  {acf5e840-7e96-4d23-a11f-bb58ff577983}, !- Source Object
  11,                                     !- Outlet Port
  {1d1117b3-77e2-4253-9974-be06f8da6380}, !- Target Object
  2;                                      !- Inlet Port

OS:PortList,
  {a5b75101-eb63-4d8a-a01a-d6c25f71f92a}, !- Handle
  {6331f960-e206-49b1-b1da-1934bed6b478}, !- Name
  {acf5e840-7e96-4d23-a11f-bb58ff577983}; !- HVAC Component

OS:PortList,
  {a9c12295-5888-4940-a135-08fd51a3a085}, !- Handle
  {fc7e217b-a076-4616-8450-e9b5c72cbe7f}, !- Name
  {acf5e840-7e96-4d23-a11f-bb58ff577983}; !- HVAC Component

OS:PortList,
  {d85108ec-d78d-4a47-8f0a-3530456e6692}, !- Handle
  {93bc31c0-a851-459b-bb0c-c9e86099725a}, !- Name
  {acf5e840-7e96-4d23-a11f-bb58ff577983}; !- HVAC Component

OS:Sizing:Zone,
  {d2c6d20e-d096-4f3b-9730-ffa7543da3bb}, !- Handle
  {acf5e840-7e96-4d23-a11f-bb58ff577983}, !- Zone or ZoneList Name
  SupplyAirTemperature,                   !- Zone Cooling Design Supply Air Temperature Input Method
  14,                                     !- Zone Cooling Design Supply Air Temperature {C}
  11.11,                                  !- Zone Cooling Design Supply Air Temperature Difference {deltaC}
  SupplyAirTemperature,                   !- Zone Heating Design Supply Air Temperature Input Method
  40,                                     !- Zone Heating Design Supply Air Temperature {C}
  11.11,                                  !- Zone Heating Design Supply Air Temperature Difference {deltaC}
  0.0085,                                 !- Zone Cooling Design Supply Air Humidity Ratio {kg-H2O/kg-air}
  0.008,                                  !- Zone Heating Design Supply Air Humidity Ratio {kg-H2O/kg-air}
  ,                                       !- Zone Heating Sizing Factor
  ,                                       !- Zone Cooling Sizing Factor
  DesignDay,                              !- Cooling Design Air Flow Method
  ,                                       !- Cooling Design Air Flow Rate {m3/s}
  ,                                       !- Cooling Minimum Air Flow per Zone Floor Area {m3/s-m2}
  ,                                       !- Cooling Minimum Air Flow {m3/s}
  ,                                       !- Cooling Minimum Air Flow Fraction
  DesignDay,                              !- Heating Design Air Flow Method
  ,                                       !- Heating Design Air Flow Rate {m3/s}
  ,                                       !- Heating Maximum Air Flow per Zone Floor Area {m3/s-m2}
  ,                                       !- Heating Maximum Air Flow {m3/s}
  ,                                       !- Heating Maximum Air Flow Fraction
  ,                                       !- Design Zone Air Distribution Effectiveness in Cooling Mode
  ,                                       !- Design Zone Air Distribution Effectiveness in Heating Mode
  No,                                     !- Account for Dedicated Outdoor Air System
  NeutralSupplyAir,                       !- Dedicated Outdoor Air System Control Strategy
  autosize,                               !- Dedicated Outdoor Air Low Setpoint Temperature for Design {C}
  autosize;                               !- Dedicated Outdoor Air High Setpoint Temperature for Design {C}

OS:ZoneHVAC:EquipmentList,
  {f650f1d4-3886-4386-b2aa-c7c7e1581dc0}, !- Handle
  Zone HVAC Equipment List 2,             !- Name
  {acf5e840-7e96-4d23-a11f-bb58ff577983}; !- Thermal Zone

OS:Space,
  {db88f71d-aeb7-488a-bf02-6e96a064badb}, !- Handle
  living space|unit 2|story 1,            !- Name
  {fe3e21d6-32f2-4b7d-8e33-c75a9ff76fb7}, !- Space Type Name
  ,                                       !- Default Construction Set Name
  ,                                       !- Default Schedule Set Name
  -0,                                     !- Direction of Relative North {deg}
  0,                                      !- X Origin {m}
  0,                                      !- Y Origin {m}
  0,                                      !- Z Origin {m}
  ,                                       !- Building Story Name
  {acf5e840-7e96-4d23-a11f-bb58ff577983}, !- Thermal Zone Name
  ,                                       !- Part of Total Floor Area
  ,                                       !- Design Specification Outdoor Air Object Name
  {e4ceda21-5f29-47a2-902e-0c31aa02f6cc}; !- Building Unit Name

OS:Surface,
  {0ea750c9-46fa-4789-9a0b-dc0617d20818}, !- Handle
  Surface 12,                             !- Name
  Floor,                                  !- Surface Type
  ,                                       !- Construction Name
  {db88f71d-aeb7-488a-bf02-6e96a064badb}, !- Space Name
  Surface,                                !- Outside Boundary Condition
  {92ccbe31-8069-42f7-8a43-4e82932227ef}, !- Outside Boundary Condition Object
  NoSun,                                  !- Sun Exposure
  NoWind,                                 !- Wind Exposure
  ,                                       !- View Factor to Ground
  ,                                       !- Number of Vertices
  4.572, -9.144, 0,                       !- X,Y,Z Vertex 1 {m}
  4.572, 0, 0,                            !- X,Y,Z Vertex 2 {m}
  9.144, 0, 0,                            !- X,Y,Z Vertex 3 {m}
  9.144, -9.144, 0;                       !- X,Y,Z Vertex 4 {m}

OS:Surface,
  {5cc6d89d-d72e-4ef7-b3b2-e89b3bc6e0fb}, !- Handle
  Surface 13,                             !- Name
  Wall,                                   !- Surface Type
  ,                                       !- Construction Name
  {db88f71d-aeb7-488a-bf02-6e96a064badb}, !- Space Name
  Surface,                                !- Outside Boundary Condition
  {7aad6ca9-3588-4af9-b1da-26c787046392}, !- Outside Boundary Condition Object
  NoSun,                                  !- Sun Exposure
  NoWind,                                 !- Wind Exposure
  ,                                       !- View Factor to Ground
  ,                                       !- Number of Vertices
  4.572, 0, 2.4384,                       !- X,Y,Z Vertex 1 {m}
  4.572, 0, 0,                            !- X,Y,Z Vertex 2 {m}
  4.572, -9.144, 0,                       !- X,Y,Z Vertex 3 {m}
  4.572, -9.144, 2.4384;                  !- X,Y,Z Vertex 4 {m}

OS:Surface,
  {4364741d-b1a6-4c3b-8062-67edb21cd652}, !- Handle
  Surface 14,                             !- Name
  Wall,                                   !- Surface Type
  ,                                       !- Construction Name
  {db88f71d-aeb7-488a-bf02-6e96a064badb}, !- Space Name
  Surface,                                !- Outside Boundary Condition
  {0c0de2df-c156-4bb8-a59a-b6e2320ec4ea}, !- Outside Boundary Condition Object
  NoSun,                                  !- Sun Exposure
  NoWind,                                 !- Wind Exposure
  ,                                       !- View Factor to Ground
  ,                                       !- Number of Vertices
  9.144, -9.144, 2.4384,                  !- X,Y,Z Vertex 1 {m}
  9.144, -9.144, 0,                       !- X,Y,Z Vertex 2 {m}
  9.144, 0, 0,                            !- X,Y,Z Vertex 3 {m}
  9.144, 0, 2.4384;                       !- X,Y,Z Vertex 4 {m}

OS:Surface,
  {c2bb3385-7899-4e75-b720-9d8d5309189a}, !- Handle
  Surface 15,                             !- Name
  Wall,                                   !- Surface Type
  ,                                       !- Construction Name
  {db88f71d-aeb7-488a-bf02-6e96a064badb}, !- Space Name
  Outdoors,                               !- Outside Boundary Condition
  ,                                       !- Outside Boundary Condition Object
  SunExposed,                             !- Sun Exposure
  WindExposed,                            !- Wind Exposure
  ,                                       !- View Factor to Ground
  ,                                       !- Number of Vertices
  9.144, 0, 2.4384,                       !- X,Y,Z Vertex 1 {m}
  9.144, 0, 0,                            !- X,Y,Z Vertex 2 {m}
  4.572, 0, 0,                            !- X,Y,Z Vertex 3 {m}
  4.572, 0, 2.4384;                       !- X,Y,Z Vertex 4 {m}

OS:Surface,
  {35dc4873-5e0c-4e43-8774-5a0069673cbe}, !- Handle
  Surface 16,                             !- Name
  RoofCeiling,                            !- Surface Type
  ,                                       !- Construction Name
  {db88f71d-aeb7-488a-bf02-6e96a064badb}, !- Space Name
  Surface,                                !- Outside Boundary Condition
  {ed9f29a0-8e0e-48ba-b23d-cee6742f9c15}, !- Outside Boundary Condition Object
  NoSun,                                  !- Sun Exposure
  NoWind,                                 !- Wind Exposure
  ,                                       !- View Factor to Ground
  ,                                       !- Number of Vertices
  9.144, -9.144, 2.4384,                  !- X,Y,Z Vertex 1 {m}
  9.144, 0, 2.4384,                       !- X,Y,Z Vertex 2 {m}
  4.572, 0, 2.4384,                       !- X,Y,Z Vertex 3 {m}
  4.572, -9.144, 2.4384;                  !- X,Y,Z Vertex 4 {m}

OS:Surface,
  {4a856c6f-b75f-418c-9c18-82759d234834}, !- Handle
  Surface 17,                             !- Name
  Wall,                                   !- Surface Type
  ,                                       !- Construction Name
  {db88f71d-aeb7-488a-bf02-6e96a064badb}, !- Space Name
  Outdoors,                               !- Outside Boundary Condition
  ,                                       !- Outside Boundary Condition Object
  SunExposed,                             !- Sun Exposure
  WindExposed,                            !- Wind Exposure
  ,                                       !- View Factor to Ground
  ,                                       !- Number of Vertices
  4.572, -9.144, 2.4384,                  !- X,Y,Z Vertex 1 {m}
  4.572, -9.144, 0,                       !- X,Y,Z Vertex 2 {m}
  9.144, -9.144, 0,                       !- X,Y,Z Vertex 3 {m}
  9.144, -9.144, 2.4384;                  !- X,Y,Z Vertex 4 {m}

OS:ThermalZone,
  {227e1eda-cc55-4cbb-b4a3-5c29d6fdb9c0}, !- Handle
  living zone|unit 3,                     !- Name
  ,                                       !- Multiplier
  ,                                       !- Ceiling Height {m}
  ,                                       !- Volume {m3}
  ,                                       !- Floor Area {m2}
  ,                                       !- Zone Inside Convection Algorithm
  ,                                       !- Zone Outside Convection Algorithm
  ,                                       !- Zone Conditioning Equipment List Name
  {9a8afbde-75c9-4a9c-a498-e1d317e7a39a}, !- Zone Air Inlet Port List
  {2b1a47d4-788a-41b4-a0fc-46324d6f0ced}, !- Zone Air Exhaust Port List
  {a6806114-820b-48e5-9be8-0fc740f43999}, !- Zone Air Node Name
  {d7517a4a-cfd3-45a3-8c72-912799a43298}, !- Zone Return Air Port List
  ,                                       !- Primary Daylighting Control Name
  ,                                       !- Fraction of Zone Controlled by Primary Daylighting Control
  ,                                       !- Secondary Daylighting Control Name
  ,                                       !- Fraction of Zone Controlled by Secondary Daylighting Control
  ,                                       !- Illuminance Map Name
  ,                                       !- Group Rendering Name
  ,                                       !- Thermostat Name
  No;                                     !- Use Ideal Air Loads

OS:Node,
  {a422ec38-a064-492b-b1ba-42b5141d8262}, !- Handle
  Node 3,                                 !- Name
  {a6806114-820b-48e5-9be8-0fc740f43999}, !- Inlet Port
  ;                                       !- Outlet Port

OS:Connection,
  {a6806114-820b-48e5-9be8-0fc740f43999}, !- Handle
  {0791cf98-cd5b-4032-abb4-fe3a3099ce35}, !- Name
  {227e1eda-cc55-4cbb-b4a3-5c29d6fdb9c0}, !- Source Object
  11,                                     !- Outlet Port
  {a422ec38-a064-492b-b1ba-42b5141d8262}, !- Target Object
  2;                                      !- Inlet Port

OS:PortList,
  {9a8afbde-75c9-4a9c-a498-e1d317e7a39a}, !- Handle
  {73985e69-9041-44ef-a023-e6dd653b92e3}, !- Name
  {227e1eda-cc55-4cbb-b4a3-5c29d6fdb9c0}; !- HVAC Component

OS:PortList,
  {2b1a47d4-788a-41b4-a0fc-46324d6f0ced}, !- Handle
  {9dc9bfc2-cad5-43cf-998d-eded4b42c241}, !- Name
  {227e1eda-cc55-4cbb-b4a3-5c29d6fdb9c0}; !- HVAC Component

OS:PortList,
  {d7517a4a-cfd3-45a3-8c72-912799a43298}, !- Handle
  {1f28ab01-a5ea-4418-b524-5cb6f42409d6}, !- Name
  {227e1eda-cc55-4cbb-b4a3-5c29d6fdb9c0}; !- HVAC Component

OS:Sizing:Zone,
  {fa5c1fda-4723-4528-a993-97ced9356b56}, !- Handle
  {227e1eda-cc55-4cbb-b4a3-5c29d6fdb9c0}, !- Zone or ZoneList Name
  SupplyAirTemperature,                   !- Zone Cooling Design Supply Air Temperature Input Method