!- NOTE: Auto-generated from /test/osw_files/SFA_4units_1story_SL_UA_3Beds_2Baths_Denver_Central_System_Boiler_Baseboards_NoSetpoints.osw

OS:Version,
  {7caf634a-d7fb-4f5b-bf66-fcc24faf0e6b}, !- Handle
  2.9.1;                                  !- Version Identifier

OS:SimulationControl,
  {79f50eda-a013-43a0-8f72-a702b2cbbad4}, !- Handle
  ,                                       !- Do Zone Sizing Calculation
  ,                                       !- Do System Sizing Calculation
  ,                                       !- Do Plant Sizing Calculation
  Yes;                                    !- Run Simulation for Sizing Periods

OS:Timestep,
  {c3c81e6f-c89c-4d31-977a-59466ee76d17}, !- Handle
  6;                                      !- Number of Timesteps per Hour

OS:ShadowCalculation,
  {22392826-7cb0-48d5-b9ac-590e1e75f8e0}, !- Handle
  20,                                     !- Calculation Frequency
  200;                                    !- Maximum Figures in Shadow Overlap Calculations

OS:SurfaceConvectionAlgorithm:Outside,
  {848b6fec-1ac1-4d20-95a3-cf6588a6bc63}, !- Handle
  DOE-2;                                  !- Algorithm

OS:SurfaceConvectionAlgorithm:Inside,
  {87a67969-adb7-48e6-a615-b7200d12159e}, !- Handle
  TARP;                                   !- Algorithm

OS:ZoneCapacitanceMultiplier:ResearchSpecial,
  {e81c40aa-46ec-40cf-a2a6-52f96ae63ff2}, !- Handle
  ,                                       !- Temperature Capacity Multiplier
  15,                                     !- Humidity Capacity Multiplier
  ;                                       !- Carbon Dioxide Capacity Multiplier

OS:RunPeriod,
  {9b590039-d775-49c4-a03e-99507be46f63}, !- Handle
  Run Period 1,                           !- Name
  1,                                      !- Begin Month
  1,                                      !- Begin Day of Month
  12,                                     !- End Month
  31,                                     !- End Day of Month
  ,                                       !- Use Weather File Holidays and Special Days
  ,                                       !- Use Weather File Daylight Saving Period
  ,                                       !- Apply Weekend Holiday Rule
  ,                                       !- Use Weather File Rain Indicators
  ,                                       !- Use Weather File Snow Indicators
  ;                                       !- Number of Times Runperiod to be Repeated

OS:YearDescription,
  {9c55f43a-cd6c-415e-bddc-1293590289de}, !- Handle
  2007,                                   !- Calendar Year
  ,                                       !- Day of Week for Start Day
  ;                                       !- Is Leap Year

OS:ThermalZone,
  {94760354-ce4f-4502-ada1-c4ac16f9676b}, !- Handle
  living zone,                            !- Name
  ,                                       !- Multiplier
  ,                                       !- Ceiling Height {m}
  ,                                       !- Volume {m3}
  ,                                       !- Floor Area {m2}
  ,                                       !- Zone Inside Convection Algorithm
  ,                                       !- Zone Outside Convection Algorithm
  ,                                       !- Zone Conditioning Equipment List Name
  {18882744-6748-4be7-8e13-0fbbe6a3a576}, !- Zone Air Inlet Port List
  {ef61d7c9-9ad1-4452-aeb6-8a3bd41783f8}, !- Zone Air Exhaust Port List
  {513815a1-d64e-423d-90d9-670d3f370de3}, !- Zone Air Node Name
  {c30fc73b-e4e8-47df-8bff-618fc727d40d}, !- Zone Return Air Port List
  ,                                       !- Primary Daylighting Control Name
  ,                                       !- Fraction of Zone Controlled by Primary Daylighting Control
  ,                                       !- Secondary Daylighting Control Name
  ,                                       !- Fraction of Zone Controlled by Secondary Daylighting Control
  ,                                       !- Illuminance Map Name
  ,                                       !- Group Rendering Name
  ,                                       !- Thermostat Name
  No;                                     !- Use Ideal Air Loads

OS:Node,
  {13d86195-263b-49ad-b6b9-37fbe08f03a7}, !- Handle
  Node 1,                                 !- Name
  {513815a1-d64e-423d-90d9-670d3f370de3}, !- Inlet Port
  ;                                       !- Outlet Port

OS:Connection,
  {513815a1-d64e-423d-90d9-670d3f370de3}, !- Handle
  {b07ea8fb-aa27-4f61-a2de-b58e38864c55}, !- Name
  {94760354-ce4f-4502-ada1-c4ac16f9676b}, !- Source Object
  11,                                     !- Outlet Port
  {13d86195-263b-49ad-b6b9-37fbe08f03a7}, !- Target Object
  2;                                      !- Inlet Port

OS:PortList,
  {18882744-6748-4be7-8e13-0fbbe6a3a576}, !- Handle
  {2bde834d-4cb0-4881-a4a7-51e203812d80}, !- Name
  {94760354-ce4f-4502-ada1-c4ac16f9676b}; !- HVAC Component

OS:PortList,
  {ef61d7c9-9ad1-4452-aeb6-8a3bd41783f8}, !- Handle
  {97c280d6-ca0a-4459-ac9b-7e918801f2fb}, !- Name
  {94760354-ce4f-4502-ada1-c4ac16f9676b}; !- HVAC Component

OS:PortList,
  {c30fc73b-e4e8-47df-8bff-618fc727d40d}, !- Handle
  {d7652bca-946e-46df-a37f-42d399ef576e}, !- Name
  {94760354-ce4f-4502-ada1-c4ac16f9676b}; !- HVAC Component

OS:Sizing:Zone,
  {746e901a-2727-49b3-9804-b36694431240}, !- Handle
  {94760354-ce4f-4502-ada1-c4ac16f9676b}, !- Zone or ZoneList Name
  SupplyAirTemperature,                   !- Zone Cooling Design Supply Air Temperature Input Method
  14,                                     !- Zone Cooling Design Supply Air Temperature {C}
  11.11,                                  !- Zone Cooling Design Supply Air Temperature Difference {deltaC}
  SupplyAirTemperature,                   !- Zone Heating Design Supply Air Temperature Input Method
  40,                                     !- Zone Heating Design Supply Air Temperature {C}
  11.11,                                  !- Zone Heating Design Supply Air Temperature Difference {deltaC}
  0.0085,                                 !- Zone Cooling Design Supply Air Humidity Ratio {kg-H2O/kg-air}
  0.008,                                  !- Zone Heating Design Supply Air Humidity Ratio {kg-H2O/kg-air}
  ,                                       !- Zone Heating Sizing Factor
  ,                                       !- Zone Cooling Sizing Factor
  DesignDay,                              !- Cooling Design Air Flow Method
  ,                                       !- Cooling Design Air Flow Rate {m3/s}
  ,                                       !- Cooling Minimum Air Flow per Zone Floor Area {m3/s-m2}
  ,                                       !- Cooling Minimum Air Flow {m3/s}
  ,                                       !- Cooling Minimum Air Flow Fraction
  DesignDay,                              !- Heating Design Air Flow Method
  ,                                       !- Heating Design Air Flow Rate {m3/s}
  ,                                       !- Heating Maximum Air Flow per Zone Floor Area {m3/s-m2}
  ,                                       !- Heating Maximum Air Flow {m3/s}
  ,                                       !- Heating Maximum Air Flow Fraction
  ,                                       !- Design Zone Air Distribution Effectiveness in Cooling Mode
  ,                                       !- Design Zone Air Distribution Effectiveness in Heating Mode
  No,                                     !- Account for Dedicated Outdoor Air System
  NeutralSupplyAir,                       !- Dedicated Outdoor Air System Control Strategy
  autosize,                               !- Dedicated Outdoor Air Low Setpoint Temperature for Design {C}
  autosize;                               !- Dedicated Outdoor Air High Setpoint Temperature for Design {C}

OS:ZoneHVAC:EquipmentList,
  {a5dd97fc-5610-45b2-9c7f-08a678c37c41}, !- Handle
  Zone HVAC Equipment List 1,             !- Name
  {94760354-ce4f-4502-ada1-c4ac16f9676b}, !- Thermal Zone
  ,                                       !- Load Distribution Scheme
  {f29f3f96-2d96-4d9b-801a-bf76ac079aec}, !- Zone Equipment 1
  1,                                      !- Zone Equipment Cooling Sequence 1
  1,                                      !- Zone Equipment Heating or No-Load Sequence 1
  ,                                       !- Zone Equipment Sequential Cooling Fraction Schedule Name 1
  ;                                       !- Zone Equipment Sequential Heating Fraction Schedule Name 1

OS:Space,
  {e63329e1-eb7a-4c40-9d5d-6524aa73a206}, !- Handle
  living space,                           !- Name
  {75956a3c-8434-45fd-aed0-e9168718f7da}, !- Space Type Name
  ,                                       !- Default Construction Set Name
  ,                                       !- Default Schedule Set Name
  ,                                       !- Direction of Relative North {deg}
  ,                                       !- X Origin {m}
  ,                                       !- Y Origin {m}
  ,                                       !- Z Origin {m}
  ,                                       !- Building Story Name
  {94760354-ce4f-4502-ada1-c4ac16f9676b}, !- Thermal Zone Name
  ,                                       !- Part of Total Floor Area
  ,                                       !- Design Specification Outdoor Air Object Name
  {98fb0ace-a0b6-4cf2-baa8-bfdf3fc01fbc}; !- Building Unit Name

OS:Surface,
  {7f0fd022-5ed9-4a7f-8540-b2b17eb83e89}, !- Handle
  Surface 1,                              !- Name
  Floor,                                  !- Surface Type
  ,                                       !- Construction Name
  {e63329e1-eb7a-4c40-9d5d-6524aa73a206}, !- Space Name
  Foundation,                             !- Outside Boundary Condition
  ,                                       !- Outside Boundary Condition Object
  NoSun,                                  !- Sun Exposure
  NoWind,                                 !- Wind Exposure
  ,                                       !- View Factor to Ground
  ,                                       !- Number of Vertices
  0, -12.9315688143396, 0,                !- X,Y,Z Vertex 1 {m}
  0, 0, 0,                                !- X,Y,Z Vertex 2 {m}
  6.46578440716979, 0, 0,                 !- X,Y,Z Vertex 3 {m}
  6.46578440716979, -12.9315688143396, 0; !- X,Y,Z Vertex 4 {m}

OS:Surface,
  {c2518cba-3b2f-4114-9943-662179c559eb}, !- Handle
  Surface 2,                              !- Name
  Wall,                                   !- Surface Type
  ,                                       !- Construction Name
  {e63329e1-eb7a-4c40-9d5d-6524aa73a206}, !- Space Name
  Outdoors,                               !- Outside Boundary Condition
  ,                                       !- Outside Boundary Condition Object
  SunExposed,                             !- Sun Exposure
  WindExposed,                            !- Wind Exposure
  ,                                       !- View Factor to Ground
  ,                                       !- Number of Vertices
  0, 0, 2.4384,                           !- X,Y,Z Vertex 1 {m}
  0, 0, 0,                                !- X,Y,Z Vertex 2 {m}
  0, -12.9315688143396, 0,                !- X,Y,Z Vertex 3 {m}
  0, -12.9315688143396, 2.4384;           !- X,Y,Z Vertex 4 {m}

OS:Surface,
  {948fbb84-9adb-4884-abe0-7d772f658e1b}, !- Handle
  Surface 3,                              !- Name
  Wall,                                   !- Surface Type
  ,                                       !- Construction Name
  {e63329e1-eb7a-4c40-9d5d-6524aa73a206}, !- Space Name
  Outdoors,                               !- Outside Boundary Condition
  ,                                       !- Outside Boundary Condition Object
  SunExposed,                             !- Sun Exposure
  WindExposed,                            !- Wind Exposure
  ,                                       !- View Factor to Ground
  ,                                       !- Number of Vertices
  6.46578440716979, 0, 2.4384,            !- X,Y,Z Vertex 1 {m}
  6.46578440716979, 0, 0,                 !- X,Y,Z Vertex 2 {m}
  0, 0, 0,                                !- X,Y,Z Vertex 3 {m}
  0, 0, 2.4384;                           !- X,Y,Z Vertex 4 {m}

OS:Surface,
  {60596882-7cd8-45dc-a1e6-6f792a160157}, !- Handle
  Surface 4,                              !- Name
  Wall,                                   !- Surface Type
  ,                                       !- Construction Name
  {e63329e1-eb7a-4c40-9d5d-6524aa73a206}, !- Space Name
  Surface,                                !- Outside Boundary Condition
  {46b002aa-1461-42ab-b306-8e1c52ddd3ee}, !- Outside Boundary Condition Object
  NoSun,                                  !- Sun Exposure
  NoWind,                                 !- Wind Exposure
  ,                                       !- View Factor to Ground
  ,                                       !- Number of Vertices
  6.46578440716979, -12.9315688143396, 2.4384, !- X,Y,Z Vertex 1 {m}
  6.46578440716979, -12.9315688143396, 0, !- X,Y,Z Vertex 2 {m}
  6.46578440716979, 0, 0,                 !- X,Y,Z Vertex 3 {m}
  6.46578440716979, 0, 2.4384;            !- X,Y,Z Vertex 4 {m}

OS:Surface,
  {400f5387-de7e-4182-82d8-1ac948fb6473}, !- Handle
  Surface 5,                              !- Name
  Wall,                                   !- Surface Type
  ,                                       !- Construction Name
  {e63329e1-eb7a-4c40-9d5d-6524aa73a206}, !- Space Name
  Outdoors,                               !- Outside Boundary Condition
  ,                                       !- Outside Boundary Condition Object
  SunExposed,                             !- Sun Exposure
  WindExposed,                            !- Wind Exposure
  ,                                       !- View Factor to Ground
  ,                                       !- Number of Vertices
  0, -12.9315688143396, 2.4384,           !- X,Y,Z Vertex 1 {m}
  0, -12.9315688143396, 0,                !- X,Y,Z Vertex 2 {m}
  6.46578440716979, -12.9315688143396, 0, !- X,Y,Z Vertex 3 {m}
  6.46578440716979, -12.9315688143396, 2.4384; !- X,Y,Z Vertex 4 {m}

OS:Surface,
  {cb77f557-9d51-45e9-af1b-2d243b1e92ed}, !- Handle
  Surface 6,                              !- Name
  RoofCeiling,                            !- Surface Type
  ,                                       !- Construction Name
  {e63329e1-eb7a-4c40-9d5d-6524aa73a206}, !- Space Name
  Surface,                                !- Outside Boundary Condition
  {b09cb4b1-793d-4965-9ff4-1303fe76c705}, !- Outside Boundary Condition Object
  NoSun,                                  !- Sun Exposure
  NoWind,                                 !- Wind Exposure
  ,                                       !- View Factor to Ground
  ,                                       !- Number of Vertices
  6.46578440716979, -12.9315688143396, 2.4384, !- X,Y,Z Vertex 1 {m}
  6.46578440716979, 0, 2.4384,            !- X,Y,Z Vertex 2 {m}
  0, 0, 2.4384,                           !- X,Y,Z Vertex 3 {m}
  0, -12.9315688143396, 2.4384;           !- X,Y,Z Vertex 4 {m}

OS:SpaceType,
  {75956a3c-8434-45fd-aed0-e9168718f7da}, !- Handle
  Space Type 1,                           !- Name
  ,                                       !- Default Construction Set Name
  ,                                       !- Default Schedule Set Name
  ,                                       !- Group Rendering Name
  ,                                       !- Design Specification Outdoor Air Object Name
  ,                                       !- Standards Template
  ,                                       !- Standards Building Type
  living;                                 !- Standards Space Type

OS:ThermalZone,
  {df0a79b1-e018-4703-87f3-cb5b7b0a2c75}, !- Handle
  living zone|unit 2,                     !- Name
  ,                                       !- Multiplier
  ,                                       !- Ceiling Height {m}
  ,                                       !- Volume {m3}
  ,                                       !- Floor Area {m2}
  ,                                       !- Zone Inside Convection Algorithm
  ,                                       !- Zone Outside Convection Algorithm
  ,                                       !- Zone Conditioning Equipment List Name
  {509ebb22-a388-4020-b8e2-d087d3291ecb}, !- Zone Air Inlet Port List
  {3040b7cf-ad4f-4a10-83a6-767779503627}, !- Zone Air Exhaust Port List
  {70b1b97a-c5a0-48ba-b5c3-333df4ef4113}, !- Zone Air Node Name
  {f7f8c4a2-823a-4e9b-a5be-3356ea0dcc7f}, !- Zone Return Air Port List
  ,                                       !- Primary Daylighting Control Name
  ,                                       !- Fraction of Zone Controlled by Primary Daylighting Control
  ,                                       !- Secondary Daylighting Control Name
  ,                                       !- Fraction of Zone Controlled by Secondary Daylighting Control
  ,                                       !- Illuminance Map Name
  ,                                       !- Group Rendering Name
  ,                                       !- Thermostat Name
  No;                                     !- Use Ideal Air Loads

OS:Node,
  {5ea4e4c7-356d-478d-bdf7-a099aa657f1b}, !- Handle
  Node 2,                                 !- Name
  {70b1b97a-c5a0-48ba-b5c3-333df4ef4113}, !- Inlet Port
  ;                                       !- Outlet Port

OS:Connection,
  {70b1b97a-c5a0-48ba-b5c3-333df4ef4113}, !- Handle
  {05eccd57-877a-4c95-9f7c-0d689fa8b550}, !- Name
  {df0a79b1-e018-4703-87f3-cb5b7b0a2c75}, !- Source Object
  11,                                     !- Outlet Port
  {5ea4e4c7-356d-478d-bdf7-a099aa657f1b}, !- Target Object
  2;                                      !- Inlet Port

OS:PortList,
  {509ebb22-a388-4020-b8e2-d087d3291ecb}, !- Handle
  {ea07fdca-2fcf-4035-a8b6-e509fb995d8b}, !- Name
  {df0a79b1-e018-4703-87f3-cb5b7b0a2c75}; !- HVAC Component

OS:PortList,
  {3040b7cf-ad4f-4a10-83a6-767779503627}, !- Handle
  {a8730986-5a39-40c7-b722-3715e4740d1c}, !- Name
  {df0a79b1-e018-4703-87f3-cb5b7b0a2c75}; !- HVAC Component

OS:PortList,
  {f7f8c4a2-823a-4e9b-a5be-3356ea0dcc7f}, !- Handle
  {6fae7e5a-c18a-4bc4-9d09-fc9930319224}, !- Name
  {df0a79b1-e018-4703-87f3-cb5b7b0a2c75}; !- HVAC Component

OS:Sizing:Zone,
  {45f58cc9-9b39-4ef6-b2d9-1c4d9a7e9f20}, !- Handle
  {df0a79b1-e018-4703-87f3-cb5b7b0a2c75}, !- Zone or ZoneList Name
  SupplyAirTemperature,                   !- Zone Cooling Design Supply Air Temperature Input Method
  14,                                     !- Zone Cooling Design Supply Air Temperature {C}
  11.11,                                  !- Zone Cooling Design Supply Air Temperature Difference {deltaC}
  SupplyAirTemperature,                   !- Zone Heating Design Supply Air Temperature Input Method
  40,                                     !- Zone Heating Design Supply Air Temperature {C}
  11.11,                                  !- Zone Heating Design Supply Air Temperature Difference {deltaC}
  0.0085,                                 !- Zone Cooling Design Supply Air Humidity Ratio {kg-H2O/kg-air}
  0.008,                                  !- Zone Heating Design Supply Air Humidity Ratio {kg-H2O/kg-air}
  ,                                       !- Zone Heating Sizing Factor
  ,                                       !- Zone Cooling Sizing Factor
  DesignDay,                              !- Cooling Design Air Flow Method
  ,                                       !- Cooling Design Air Flow Rate {m3/s}
  ,                                       !- Cooling Minimum Air Flow per Zone Floor Area {m3/s-m2}
  ,                                       !- Cooling Minimum Air Flow {m3/s}
  ,                                       !- Cooling Minimum Air Flow Fraction
  DesignDay,                              !- Heating Design Air Flow Method
  ,                                       !- Heating Design Air Flow Rate {m3/s}
  ,                                       !- Heating Maximum Air Flow per Zone Floor Area {m3/s-m2}
  ,                                       !- Heating Maximum Air Flow {m3/s}
  ,                                       !- Heating Maximum Air Flow Fraction
  ,                                       !- Design Zone Air Distribution Effectiveness in Cooling Mode
  ,                                       !- Design Zone Air Distribution Effectiveness in Heating Mode
  No,                                     !- Account for Dedicated Outdoor Air System
  NeutralSupplyAir,                       !- Dedicated Outdoor Air System Control Strategy
  autosize,                               !- Dedicated Outdoor Air Low Setpoint Temperature for Design {C}
  autosize;                               !- Dedicated Outdoor Air High Setpoint Temperature for Design {C}

OS:ZoneHVAC:EquipmentList,
  {5e856e3a-ca55-413b-b66c-a5815b16c083}, !- Handle
  Zone HVAC Equipment List 2,             !- Name
  {df0a79b1-e018-4703-87f3-cb5b7b0a2c75}, !- Thermal Zone
  ,                                       !- Load Distribution Scheme
  {cbc152e7-5585-4713-b128-c0a1df85e48a}, !- Zone Equipment 1
  1,                                      !- Zone Equipment Cooling Sequence 1
  1,                                      !- Zone Equipment Heating or No-Load Sequence 1
  ,                                       !- Zone Equipment Sequential Cooling Fraction Schedule Name 1
  ;                                       !- Zone Equipment Sequential Heating Fraction Schedule Name 1

OS:Space,
  {2449b0c6-e179-480d-a21c-8419380419ae}, !- Handle
  living space|unit 2|story 1,            !- Name
  {75956a3c-8434-45fd-aed0-e9168718f7da}, !- Space Type Name
  ,                                       !- Default Construction Set Name
  ,                                       !- Default Schedule Set Name
  -0,                                     !- Direction of Relative North {deg}
  0,                                      !- X Origin {m}
  0,                                      !- Y Origin {m}
  0,                                      !- Z Origin {m}
  ,                                       !- Building Story Name
  {df0a79b1-e018-4703-87f3-cb5b7b0a2c75}, !- Thermal Zone Name
  ,                                       !- Part of Total Floor Area
  ,                                       !- Design Specification Outdoor Air Object Name
  {709f85e4-10ef-44bc-81b2-0378d4da081d}; !- Building Unit Name

OS:Surface,
  {7a7cc61d-40a8-4b54-934d-9e4e36637aa5}, !- Handle
  Surface 12,                             !- Name
  Floor,                                  !- Surface Type
  ,                                       !- Construction Name
  {2449b0c6-e179-480d-a21c-8419380419ae}, !- Space Name
  Foundation,                             !- Outside Boundary Condition
  ,                                       !- Outside Boundary Condition Object
  NoSun,                                  !- Sun Exposure
  NoWind,                                 !- Wind Exposure
  ,                                       !- View Factor to Ground
  ,                                       !- Number of Vertices
  6.46578440716979, -12.9315688143396, 0, !- X,Y,Z Vertex 1 {m}
  6.46578440716979, 0, 0,                 !- X,Y,Z Vertex 2 {m}
  12.9315688143396, 0, 0,                 !- X,Y,Z Vertex 3 {m}
  12.9315688143396, -12.9315688143396, 0; !- X,Y,Z Vertex 4 {m}

OS:Surface,
  {46b002aa-1461-42ab-b306-8e1c52ddd3ee}, !- Handle
  Surface 13,                             !- Name
  Wall,                                   !- Surface Type
  ,                                       !- Construction Name
  {2449b0c6-e179-480d-a21c-8419380419ae}, !- Space Name
  Surface,                                !- Outside Boundary Condition
  {60596882-7cd8-45dc-a1e6-6f792a160157}, !- Outside Boundary Condition Object
  NoSun,                                  !- Sun Exposure
  NoWind,                                 !- Wind Exposure
  ,                                       !- View Factor to Ground
  ,                                       !- Number of Vertices
  6.46578440716979, 0, 2.4384,            !- X,Y,Z Vertex 1 {m}
  6.46578440716979, 0, 0,                 !- X,Y,Z Vertex 2 {m}
  6.46578440716979, -12.9315688143396, 0, !- X,Y,Z Vertex 3 {m}
  6.46578440716979, -12.9315688143396, 2.4384; !- X,Y,Z Vertex 4 {m}

OS:Surface,
  {98713139-7f34-4867-889c-cc51a12e81e9}, !- Handle
  Surface 14,                             !- Name
  Wall,                                   !- Surface Type
  ,                                       !- Construction Name
  {2449b0c6-e179-480d-a21c-8419380419ae}, !- Space Name
  Outdoors,                               !- Outside Boundary Condition
  ,                                       !- Outside Boundary Condition Object
  SunExposed,                             !- Sun Exposure
  WindExposed,                            !- Wind Exposure
  ,                                       !- View Factor to Ground
  ,                                       !- Number of Vertices
  12.9315688143396, 0, 2.4384,            !- X,Y,Z Vertex 1 {m}
  12.9315688143396, 0, 0,                 !- X,Y,Z Vertex 2 {m}
  6.46578440716979, 0, 0,                 !- X,Y,Z Vertex 3 {m}
  6.46578440716979, 0, 2.4384;            !- X,Y,Z Vertex 4 {m}

OS:Surface,
  {8a290c54-1457-4954-b754-cd34ea6ca63e}, !- Handle
  Surface 15,                             !- Name
  Wall,                                   !- Surface Type
  ,                                       !- Construction Name
  {2449b0c6-e179-480d-a21c-8419380419ae}, !- Space Name
  Surface,                                !- Outside Boundary Condition
  {a7243c57-7754-4f60-b49a-d9b5c99bd187}, !- Outside Boundary Condition Object
  NoSun,                                  !- Sun Exposure
  NoWind,                                 !- Wind Exposure
  ,                                       !- View Factor to Ground
  ,                                       !- Number of Vertices
  12.9315688143396, -12.9315688143396, 2.4384, !- X,Y,Z Vertex 1 {m}
  12.9315688143396, -12.9315688143396, 0, !- X,Y,Z Vertex 2 {m}
  12.9315688143396, 0, 0,                 !- X,Y,Z Vertex 3 {m}
  12.9315688143396, 0, 2.4384;            !- X,Y,Z Vertex 4 {m}

OS:Surface,
  {15936a31-f765-48ea-ae86-2889bd272f1f}, !- Handle
  Surface 16,                             !- Name
  RoofCeiling,                            !- Surface Type
  ,                                       !- Construction Name
  {2449b0c6-e179-480d-a21c-8419380419ae}, !- Space Name
  Surface,                                !- Outside Boundary Condition
  {fd8e1f85-fc94-4acb-8545-a91bf8eb15ad}, !- Outside Boundary Condition Object
  NoSun,                                  !- Sun Exposure
  NoWind,                                 !- Wind Exposure
  ,                                       !- View Factor to Ground
  ,                                       !- Number of Vertices
  12.9315688143396, -12.9315688143396, 2.4384, !- X,Y,Z Vertex 1 {m}
  12.9315688143396, 0, 2.4384,            !- X,Y,Z Vertex 2 {m}
  6.46578440716979, 0, 2.4384,            !- X,Y,Z Vertex 3 {m}
  6.46578440716979, -12.9315688143396, 2.4384; !- X,Y,Z Vertex 4 {m}

OS:Surface,
  {3237b71a-380f-4c56-be8c-475850694926}, !- Handle
  Surface 17,                             !- Name
  Wall,                                   !- Surface Type
  ,                                       !- Construction Name
  {2449b0c6-e179-480d-a21c-8419380419ae}, !- Space Name
  Outdoors,                               !- Outside Boundary Condition
  ,                                       !- Outside Boundary Condition Object
  SunExposed,                             !- Sun Exposure
  WindExposed,                            !- Wind Exposure
  ,                                       !- View Factor to Ground
  ,                                       !- Number of Vertices
  6.46578440716979, -12.9315688143396, 2.4384, !- X,Y,Z Vertex 1 {m}
  6.46578440716979, -12.9315688143396, 0, !- X,Y,Z Vertex 2 {m}
  12.9315688143396, -12.9315688143396, 0, !- X,Y,Z Vertex 3 {m}
  12.9315688143396, -12.9315688143396, 2.4384; !- X,Y,Z Vertex 4 {m}

OS:ThermalZone,
  {5411936a-77ea-42e7-afc3-2eb0859b50f2}, !- Handle
  living zone|unit 3,                     !- Name
  ,                                       !- Multiplier
  ,                                       !- Ceiling Height {m}
  ,                                       !- Volume {m3}
  ,                                       !- Floor Area {m2}
  ,                                       !- Zone Inside Convection Algorithm
  ,                                       !- Zone Outside Convection Algorithm
  ,                                       !- Zone Conditioning Equipment List Name
  {71b5f17d-e3ff-492f-a66c-5ed0067c1a63}, !- Zone Air Inlet Port List
  {527729b7-9c85-498c-9a1c-dbe861636311}, !- Zone Air Exhaust Port List
  {402dd2c9-1101-4337-b5c0-144ca359dbed}, !- Zone Air Node Name
  {c5aa29b2-7109-4e1e-acf7-3304e234ac89}, !- Zone Return Air Port List
  ,                                       !- Primary Daylighting Control Name
  ,                                       !- Fraction of Zone Controlled by Primary Daylighting Control
  ,                                       !- Secondary Daylighting Control Name
  ,                                       !- Fraction of Zone Controlled by Secondary Daylighting Control
  ,                                       !- Illuminance Map Name
  ,                                       !- Group Rendering Name
  ,                                       !- Thermostat Name
  No;                                     !- Use Ideal Air Loads

OS:Node,
  {979ec0ab-0c9a-4348-86ff-a8fb4dc84e4a}, !- Handle
  Node 3,                                 !- Name
  {402dd2c9-1101-4337-b5c0-144ca359dbed}, !- Inlet Port
  ;                                       !- Outlet Port

OS:Connection,