!- NOTE: Auto-generated from /test/osw_files/SFA_4units_1story_FB_UA_3Beds_2Baths_Denver_WHTank_HWFixtures.osw

OS:Version,
  {b5807a88-699c-4e1c-b2be-801fb2c95ef0}, !- Handle
  2.8.1;                                  !- Version Identifier

OS:SimulationControl,
  {08481a05-f1b6-4b9d-b5c8-4453295fbfbb}, !- Handle
  ,                                       !- Do Zone Sizing Calculation
  ,                                       !- Do System Sizing Calculation
  ,                                       !- Do Plant Sizing Calculation
  No;                                     !- Run Simulation for Sizing Periods

OS:Timestep,
  {6c8a012c-790e-4456-ad6e-f093b85ff1c9}, !- Handle
  6;                                      !- Number of Timesteps per Hour

OS:ShadowCalculation,
  {90d9b69a-6011-46f5-8eaf-a809359b4001}, !- Handle
  20,                                     !- Calculation Frequency
  200;                                    !- Maximum Figures in Shadow Overlap Calculations

OS:SurfaceConvectionAlgorithm:Outside,
  {5de46bb7-9d18-469b-a40e-14b1325e10a3}, !- Handle
  DOE-2;                                  !- Algorithm

OS:SurfaceConvectionAlgorithm:Inside,
  {eae71e1d-d895-469c-af15-dbc675eece89}, !- Handle
  TARP;                                   !- Algorithm

OS:ZoneCapacitanceMultiplier:ResearchSpecial,
  {911103d8-1de1-4821-a541-c35ff4281419}, !- Handle
  ,                                       !- Temperature Capacity Multiplier
  15,                                     !- Humidity Capacity Multiplier
  ;                                       !- Carbon Dioxide Capacity Multiplier

OS:RunPeriod,
  {211c8b9e-7b9d-4fc2-9658-56d1edcbb6b4}, !- Handle
  Run Period 1,                           !- Name
  1,                                      !- Begin Month
  1,                                      !- Begin Day of Month
  12,                                     !- End Month
  31,                                     !- End Day of Month
  ,                                       !- Use Weather File Holidays and Special Days
  ,                                       !- Use Weather File Daylight Saving Period
  ,                                       !- Apply Weekend Holiday Rule
  ,                                       !- Use Weather File Rain Indicators
  ,                                       !- Use Weather File Snow Indicators
  ;                                       !- Number of Times Runperiod to be Repeated

OS:ThermalZone,
  {30053d69-38d8-495e-a53f-22cee04a78a4}, !- Handle
  living zone,                            !- Name
  ,                                       !- Multiplier
  ,                                       !- Ceiling Height {m}
  ,                                       !- Volume {m3}
  ,                                       !- Floor Area {m2}
  ,                                       !- Zone Inside Convection Algorithm
  ,                                       !- Zone Outside Convection Algorithm
  ,                                       !- Zone Conditioning Equipment List Name
  {1955f8ce-88e5-4838-b79d-26a1e9c30344}, !- Zone Air Inlet Port List
  {23d6a10c-995a-4e2f-9ae4-a0e91d5bdb91}, !- Zone Air Exhaust Port List
  {a2f7f320-2751-42ff-ba3d-82528ee0ce07}, !- Zone Air Node Name
  {7519684e-c84d-4fa3-8f83-bd9118231219}, !- Zone Return Air Port List
  ,                                       !- Primary Daylighting Control Name
  ,                                       !- Fraction of Zone Controlled by Primary Daylighting Control
  ,                                       !- Secondary Daylighting Control Name
  ,                                       !- Fraction of Zone Controlled by Secondary Daylighting Control
  ,                                       !- Illuminance Map Name
  ,                                       !- Group Rendering Name
  ,                                       !- Thermostat Name
  No;                                     !- Use Ideal Air Loads

OS:Node,
  {4de4f83b-42bd-4029-9e13-ecea8190c825}, !- Handle
  Node 1,                                 !- Name
  {a2f7f320-2751-42ff-ba3d-82528ee0ce07}, !- Inlet Port
  ;                                       !- Outlet Port

OS:Connection,
  {a2f7f320-2751-42ff-ba3d-82528ee0ce07}, !- Handle
  {fa6b3d23-6a3e-4981-a38a-3dc75e13deed}, !- Name
  {30053d69-38d8-495e-a53f-22cee04a78a4}, !- Source Object
  11,                                     !- Outlet Port
  {4de4f83b-42bd-4029-9e13-ecea8190c825}, !- Target Object
  2;                                      !- Inlet Port

OS:PortList,
  {1955f8ce-88e5-4838-b79d-26a1e9c30344}, !- Handle
  {89e6f2c7-97bd-4b14-9037-d513f4ab8dca}, !- Name
  {30053d69-38d8-495e-a53f-22cee04a78a4}; !- HVAC Component

OS:PortList,
  {23d6a10c-995a-4e2f-9ae4-a0e91d5bdb91}, !- Handle
  {09107855-fb82-4be6-9f46-fb2fb62a7227}, !- Name
  {30053d69-38d8-495e-a53f-22cee04a78a4}; !- HVAC Component

OS:PortList,
  {7519684e-c84d-4fa3-8f83-bd9118231219}, !- Handle
  {bdf0ac70-2738-41a8-a74d-c8140b474789}, !- Name
  {30053d69-38d8-495e-a53f-22cee04a78a4}; !- HVAC Component

OS:Sizing:Zone,
  {47220b8f-1243-49db-bfbe-eee71520edcc}, !- Handle
  {30053d69-38d8-495e-a53f-22cee04a78a4}, !- Zone or ZoneList Name
  SupplyAirTemperature,                   !- Zone Cooling Design Supply Air Temperature Input Method
  14,                                     !- Zone Cooling Design Supply Air Temperature {C}
  11.11,                                  !- Zone Cooling Design Supply Air Temperature Difference {deltaC}
  SupplyAirTemperature,                   !- Zone Heating Design Supply Air Temperature Input Method
  40,                                     !- Zone Heating Design Supply Air Temperature {C}
  11.11,                                  !- Zone Heating Design Supply Air Temperature Difference {deltaC}
  0.0085,                                 !- Zone Cooling Design Supply Air Humidity Ratio {kg-H2O/kg-air}
  0.008,                                  !- Zone Heating Design Supply Air Humidity Ratio {kg-H2O/kg-air}
  ,                                       !- Zone Heating Sizing Factor
  ,                                       !- Zone Cooling Sizing Factor
  DesignDay,                              !- Cooling Design Air Flow Method
  ,                                       !- Cooling Design Air Flow Rate {m3/s}
  ,                                       !- Cooling Minimum Air Flow per Zone Floor Area {m3/s-m2}
  ,                                       !- Cooling Minimum Air Flow {m3/s}
  ,                                       !- Cooling Minimum Air Flow Fraction
  DesignDay,                              !- Heating Design Air Flow Method
  ,                                       !- Heating Design Air Flow Rate {m3/s}
  ,                                       !- Heating Maximum Air Flow per Zone Floor Area {m3/s-m2}
  ,                                       !- Heating Maximum Air Flow {m3/s}
  ,                                       !- Heating Maximum Air Flow Fraction
  ,                                       !- Design Zone Air Distribution Effectiveness in Cooling Mode
  ,                                       !- Design Zone Air Distribution Effectiveness in Heating Mode
  No,                                     !- Account for Dedicated Outdoor Air System
  NeutralSupplyAir,                       !- Dedicated Outdoor Air System Control Strategy
  autosize,                               !- Dedicated Outdoor Air Low Setpoint Temperature for Design {C}
  autosize;                               !- Dedicated Outdoor Air High Setpoint Temperature for Design {C}

OS:ZoneHVAC:EquipmentList,
  {300c2fd8-106e-43b6-9914-95517feabdde}, !- Handle
  Zone HVAC Equipment List 1,             !- Name
  {30053d69-38d8-495e-a53f-22cee04a78a4}; !- Thermal Zone

OS:Space,
  {ca5cfcec-69a7-40a5-8d9c-ada32a3f1adb}, !- Handle
  living space,                           !- Name
  {cfaa597e-9ed8-4ed8-84a6-6b3e659a9da4}, !- Space Type Name
  ,                                       !- Default Construction Set Name
  ,                                       !- Default Schedule Set Name
  ,                                       !- Direction of Relative North {deg}
  ,                                       !- X Origin {m}
  ,                                       !- Y Origin {m}
  ,                                       !- Z Origin {m}
  ,                                       !- Building Story Name
  {30053d69-38d8-495e-a53f-22cee04a78a4}, !- Thermal Zone Name
  ,                                       !- Part of Total Floor Area
  ,                                       !- Design Specification Outdoor Air Object Name
  {8785ad3f-fbd1-4cc1-bd6b-f0a2afc0f448}; !- Building Unit Name

OS:Surface,
  {b7e796ce-40ab-4e96-b071-024186b22519}, !- Handle
  Surface 1,                              !- Name
  Floor,                                  !- Surface Type
  ,                                       !- Construction Name
  {ca5cfcec-69a7-40a5-8d9c-ada32a3f1adb}, !- Space Name
  Surface,                                !- Outside Boundary Condition
  {9e11aaa1-a1e8-4aec-9b72-e36af6a253ea}, !- Outside Boundary Condition Object
  NoSun,                                  !- Sun Exposure
  NoWind,                                 !- Wind Exposure
  ,                                       !- View Factor to Ground
  ,                                       !- Number of Vertices
  0, -9.144, 0,                           !- X,Y,Z Vertex 1 {m}
  0, 0, 0,                                !- X,Y,Z Vertex 2 {m}
  4.572, 0, 0,                            !- X,Y,Z Vertex 3 {m}
  4.572, -9.144, 0;                       !- X,Y,Z Vertex 4 {m}

OS:Surface,
  {b129d4fb-32d3-4cda-8a83-2458910f002e}, !- Handle
  Surface 2,                              !- Name
  Wall,                                   !- Surface Type
  ,                                       !- Construction Name
  {ca5cfcec-69a7-40a5-8d9c-ada32a3f1adb}, !- Space Name
  Outdoors,                               !- Outside Boundary Condition
  ,                                       !- Outside Boundary Condition Object
  SunExposed,                             !- Sun Exposure
  WindExposed,                            !- Wind Exposure
  ,                                       !- View Factor to Ground
  ,                                       !- Number of Vertices
  0, 0, 2.4384,                           !- X,Y,Z Vertex 1 {m}
  0, 0, 0,                                !- X,Y,Z Vertex 2 {m}
  0, -9.144, 0,                           !- X,Y,Z Vertex 3 {m}
  0, -9.144, 2.4384;                      !- X,Y,Z Vertex 4 {m}

OS:Surface,
  {eee7fc9e-d781-4afe-a0eb-01fdf62bcd81}, !- Handle
  Surface 3,                              !- Name
  Wall,                                   !- Surface Type
  ,                                       !- Construction Name
  {ca5cfcec-69a7-40a5-8d9c-ada32a3f1adb}, !- Space Name
  Outdoors,                               !- Outside Boundary Condition
  ,                                       !- Outside Boundary Condition Object
  SunExposed,                             !- Sun Exposure
  WindExposed,                            !- Wind Exposure
  ,                                       !- View Factor to Ground
  ,                                       !- Number of Vertices
  4.572, 0, 2.4384,                       !- X,Y,Z Vertex 1 {m}
  4.572, 0, 0,                            !- X,Y,Z Vertex 2 {m}
  0, 0, 0,                                !- X,Y,Z Vertex 3 {m}
  0, 0, 2.4384;                           !- X,Y,Z Vertex 4 {m}

OS:Surface,
  {2513dd21-2107-481f-8a7d-48468af402e6}, !- Handle
  Surface 4,                              !- Name
  Wall,                                   !- Surface Type
  ,                                       !- Construction Name
  {ca5cfcec-69a7-40a5-8d9c-ada32a3f1adb}, !- Space Name
  Surface,                                !- Outside Boundary Condition
  {b3175667-3767-441a-b87b-7ae703c433a3}, !- Outside Boundary Condition Object
  NoSun,                                  !- Sun Exposure
  NoWind,                                 !- Wind Exposure
  ,                                       !- View Factor to Ground
  ,                                       !- Number of Vertices
  4.572, -9.144, 2.4384,                  !- X,Y,Z Vertex 1 {m}
  4.572, -9.144, 0,                       !- X,Y,Z Vertex 2 {m}
  4.572, 0, 0,                            !- X,Y,Z Vertex 3 {m}
  4.572, 0, 2.4384;                       !- X,Y,Z Vertex 4 {m}

OS:Surface,
  {857ae04b-5a1f-40ad-842b-f5990a968f32}, !- Handle
  Surface 5,                              !- Name
  Wall,                                   !- Surface Type
  ,                                       !- Construction Name
  {ca5cfcec-69a7-40a5-8d9c-ada32a3f1adb}, !- Space Name
  Outdoors,                               !- Outside Boundary Condition
  ,                                       !- Outside Boundary Condition Object
  SunExposed,                             !- Sun Exposure
  WindExposed,                            !- Wind Exposure
  ,                                       !- View Factor to Ground
  ,                                       !- Number of Vertices
  0, -9.144, 2.4384,                      !- X,Y,Z Vertex 1 {m}
  0, -9.144, 0,                           !- X,Y,Z Vertex 2 {m}
  4.572, -9.144, 0,                       !- X,Y,Z Vertex 3 {m}
  4.572, -9.144, 2.4384;                  !- X,Y,Z Vertex 4 {m}

OS:Surface,
  {96ecdc41-12c1-466b-ad59-ebb34da9366f}, !- Handle
  Surface 6,                              !- Name
  RoofCeiling,                            !- Surface Type
  ,                                       !- Construction Name
  {ca5cfcec-69a7-40a5-8d9c-ada32a3f1adb}, !- Space Name
  Surface,                                !- Outside Boundary Condition
  {830889b1-c3e9-4455-a4fb-2070260d0763}, !- Outside Boundary Condition Object
  NoSun,                                  !- Sun Exposure
  NoWind,                                 !- Wind Exposure
  ,                                       !- View Factor to Ground
  ,                                       !- Number of Vertices
  4.572, -9.144, 2.4384,                  !- X,Y,Z Vertex 1 {m}
  4.572, 0, 2.4384,                       !- X,Y,Z Vertex 2 {m}
  0, 0, 2.4384,                           !- X,Y,Z Vertex 3 {m}
  0, -9.144, 2.4384;                      !- X,Y,Z Vertex 4 {m}

OS:SpaceType,
  {cfaa597e-9ed8-4ed8-84a6-6b3e659a9da4}, !- Handle
  Space Type 1,                           !- Name
  ,                                       !- Default Construction Set Name
  ,                                       !- Default Schedule Set Name
  ,                                       !- Group Rendering Name
  ,                                       !- Design Specification Outdoor Air Object Name
  ,                                       !- Standards Template
  ,                                       !- Standards Building Type
  living;                                 !- Standards Space Type

OS:ThermalZone,
  {9ddbaf17-c115-45f7-bdbc-2d80471b5532}, !- Handle
  living zone|unit 2,                     !- Name
  ,                                       !- Multiplier
  ,                                       !- Ceiling Height {m}
  ,                                       !- Volume {m3}
  ,                                       !- Floor Area {m2}
  ,                                       !- Zone Inside Convection Algorithm
  ,                                       !- Zone Outside Convection Algorithm
  ,                                       !- Zone Conditioning Equipment List Name
  {347144cd-4a07-4a57-95cd-0e676cf7b933}, !- Zone Air Inlet Port List
  {0307b168-d8ac-4d98-9b17-1b767fbb5809}, !- Zone Air Exhaust Port List
  {f0273d3c-3d5f-4855-83b6-7b98f7d161a4}, !- Zone Air Node Name
  {718cab2c-ecca-4809-8eab-46675e879faf}, !- Zone Return Air Port List
  ,                                       !- Primary Daylighting Control Name
  ,                                       !- Fraction of Zone Controlled by Primary Daylighting Control
  ,                                       !- Secondary Daylighting Control Name
  ,                                       !- Fraction of Zone Controlled by Secondary Daylighting Control
  ,                                       !- Illuminance Map Name
  ,                                       !- Group Rendering Name
  ,                                       !- Thermostat Name
  No;                                     !- Use Ideal Air Loads

OS:Node,
  {49671877-0e2b-4336-9f7e-0cad831456ec}, !- Handle
  Node 2,                                 !- Name
  {f0273d3c-3d5f-4855-83b6-7b98f7d161a4}, !- Inlet Port
  ;                                       !- Outlet Port

OS:Connection,
  {f0273d3c-3d5f-4855-83b6-7b98f7d161a4}, !- Handle
  {03f68735-5f0d-407a-bc07-e9bf886699cd}, !- Name
  {9ddbaf17-c115-45f7-bdbc-2d80471b5532}, !- Source Object
  11,                                     !- Outlet Port
  {49671877-0e2b-4336-9f7e-0cad831456ec}, !- Target Object
  2;                                      !- Inlet Port

OS:PortList,
  {347144cd-4a07-4a57-95cd-0e676cf7b933}, !- Handle
  {f83549fc-b516-4fbb-b62b-9ccd065d5f2f}, !- Name
  {9ddbaf17-c115-45f7-bdbc-2d80471b5532}; !- HVAC Component

OS:PortList,
  {0307b168-d8ac-4d98-9b17-1b767fbb5809}, !- Handle
  {add8e954-2ec6-40bb-9976-836a4aba4087}, !- Name
  {9ddbaf17-c115-45f7-bdbc-2d80471b5532}; !- HVAC Component

OS:PortList,
  {718cab2c-ecca-4809-8eab-46675e879faf}, !- Handle
  {ded611f2-7873-4666-93e6-2de709bcf397}, !- Name
  {9ddbaf17-c115-45f7-bdbc-2d80471b5532}; !- HVAC Component

OS:Sizing:Zone,
  {c81223e1-84a6-45f0-901d-f72989bb1876}, !- Handle
  {9ddbaf17-c115-45f7-bdbc-2d80471b5532}, !- Zone or ZoneList Name
  SupplyAirTemperature,                   !- Zone Cooling Design Supply Air Temperature Input Method
  14,                                     !- Zone Cooling Design Supply Air Temperature {C}
  11.11,                                  !- Zone Cooling Design Supply Air Temperature Difference {deltaC}
  SupplyAirTemperature,                   !- Zone Heating Design Supply Air Temperature Input Method
  40,                                     !- Zone Heating Design Supply Air Temperature {C}
  11.11,                                  !- Zone Heating Design Supply Air Temperature Difference {deltaC}
  0.0085,                                 !- Zone Cooling Design Supply Air Humidity Ratio {kg-H2O/kg-air}
  0.008,                                  !- Zone Heating Design Supply Air Humidity Ratio {kg-H2O/kg-air}
  ,                                       !- Zone Heating Sizing Factor
  ,                                       !- Zone Cooling Sizing Factor
  DesignDay,                              !- Cooling Design Air Flow Method
  ,                                       !- Cooling Design Air Flow Rate {m3/s}
  ,                                       !- Cooling Minimum Air Flow per Zone Floor Area {m3/s-m2}
  ,                                       !- Cooling Minimum Air Flow {m3/s}
  ,                                       !- Cooling Minimum Air Flow Fraction
  DesignDay,                              !- Heating Design Air Flow Method
  ,                                       !- Heating Design Air Flow Rate {m3/s}
  ,                                       !- Heating Maximum Air Flow per Zone Floor Area {m3/s-m2}
  ,                                       !- Heating Maximum Air Flow {m3/s}
  ,                                       !- Heating Maximum Air Flow Fraction
  ,                                       !- Design Zone Air Distribution Effectiveness in Cooling Mode
  ,                                       !- Design Zone Air Distribution Effectiveness in Heating Mode
  No,                                     !- Account for Dedicated Outdoor Air System
  NeutralSupplyAir,                       !- Dedicated Outdoor Air System Control Strategy
  autosize,                               !- Dedicated Outdoor Air Low Setpoint Temperature for Design {C}
  autosize;                               !- Dedicated Outdoor Air High Setpoint Temperature for Design {C}

OS:ZoneHVAC:EquipmentList,
  {a3f548a3-9ba0-4d46-b1b9-09249bd78a37}, !- Handle
  Zone HVAC Equipment List 2,             !- Name
  {9ddbaf17-c115-45f7-bdbc-2d80471b5532}; !- Thermal Zone

OS:Space,
  {7be5cd1b-5ff4-497f-bde8-de736a6e831c}, !- Handle
  living space|unit 2|story 1,            !- Name
  {cfaa597e-9ed8-4ed8-84a6-6b3e659a9da4}, !- Space Type Name
  ,                                       !- Default Construction Set Name
  ,                                       !- Default Schedule Set Name
  -0,                                     !- Direction of Relative North {deg}
  0,                                      !- X Origin {m}
  0,                                      !- Y Origin {m}
  0,                                      !- Z Origin {m}
  ,                                       !- Building Story Name
  {9ddbaf17-c115-45f7-bdbc-2d80471b5532}, !- Thermal Zone Name
  ,                                       !- Part of Total Floor Area
  ,                                       !- Design Specification Outdoor Air Object Name
  {633e7819-fd22-4f68-9e1c-ae5b27443ff5}; !- Building Unit Name

OS:Surface,
  {1d1ccb65-7201-4dd1-8749-bec9a7ce99c2}, !- Handle
  Surface 12,                             !- Name
  Wall,                                   !- Surface Type
  ,                                       !- Construction Name
  {7be5cd1b-5ff4-497f-bde8-de736a6e831c}, !- Space Name
  Outdoors,                               !- Outside Boundary Condition
  ,                                       !- Outside Boundary Condition Object
  SunExposed,                             !- Sun Exposure
  WindExposed,                            !- Wind Exposure
  ,                                       !- View Factor to Ground
  ,                                       !- Number of Vertices
  9.144, 0, 2.4384,                       !- X,Y,Z Vertex 1 {m}
  9.144, 0, 0,                            !- X,Y,Z Vertex 2 {m}
  4.572, 0, 0,                            !- X,Y,Z Vertex 3 {m}
  4.572, 0, 2.4384;                       !- X,Y,Z Vertex 4 {m}

OS:Surface,
  {2824675c-e4d2-4987-8d67-fd543e5b57a1}, !- Handle
  Surface 13,                             !- Name
  Wall,                                   !- Surface Type
  ,                                       !- Construction Name
  {7be5cd1b-5ff4-497f-bde8-de736a6e831c}, !- Space Name
  Outdoors,                               !- Outside Boundary Condition
  ,                                       !- Outside Boundary Condition Object
  SunExposed,                             !- Sun Exposure
  WindExposed,                            !- Wind Exposure
  ,                                       !- View Factor to Ground
  ,                                       !- Number of Vertices
  4.572, -9.144, 2.4384,                  !- X,Y,Z Vertex 1 {m}
  4.572, -9.144, 0,                       !- X,Y,Z Vertex 2 {m}
  9.144, -9.144, 0,                       !- X,Y,Z Vertex 3 {m}
  9.144, -9.144, 2.4384;                  !- X,Y,Z Vertex 4 {m}

OS:Surface,
  {bacb6a5d-7654-4cf9-baa9-0b0e2ea68077}, !- Handle
  Surface 14,                             !- Name
  Wall,                                   !- Surface Type
  ,                                       !- Construction Name
  {7be5cd1b-5ff4-497f-bde8-de736a6e831c}, !- Space Name
  Surface,                                !- Outside Boundary Condition
  {b3016eff-f081-4e69-85f2-2988c529a30f}, !- Outside Boundary Condition Object
  NoSun,                                  !- Sun Exposure
  NoWind,                                 !- Wind Exposure
  ,                                       !- View Factor to Ground
  ,                                       !- Number of Vertices
  9.144, -9.144, 2.4384,                  !- X,Y,Z Vertex 1 {m}
  9.144, -9.144, 0,                       !- X,Y,Z Vertex 2 {m}
  9.144, 0, 0,                            !- X,Y,Z Vertex 3 {m}
  9.144, 0, 2.4384;                       !- X,Y,Z Vertex 4 {m}

OS:Surface,
  {a7629921-f2c9-4cdf-9dfe-3feffed0d411}, !- Handle
  Surface 15,                             !- Name
  RoofCeiling,                            !- Surface Type
  ,                                       !- Construction Name
  {7be5cd1b-5ff4-497f-bde8-de736a6e831c}, !- Space Name
  Surface,                                !- Outside Boundary Condition
  {1ee45714-654b-4ed1-98eb-c63783bfa31b}, !- Outside Boundary Condition Object
  NoSun,                                  !- Sun Exposure
  NoWind,                                 !- Wind Exposure
  ,                                       !- View Factor to Ground
  ,                                       !- Number of Vertices
  9.144, -9.144, 2.4384,                  !- X,Y,Z Vertex 1 {m}
  9.144, 0, 2.4384,                       !- X,Y,Z Vertex 2 {m}
  4.572, 0, 2.4384,                       !- X,Y,Z Vertex 3 {m}
  4.572, -9.144, 2.4384;                  !- X,Y,Z Vertex 4 {m}

OS:Surface,
  {a439da1d-156c-48be-bb05-9c9023df9a4a}, !- Handle
  Surface 16,                             !- Name
  Floor,                                  !- Surface Type
  ,                                       !- Construction Name
  {7be5cd1b-5ff4-497f-bde8-de736a6e831c}, !- Space Name
  Surface,                                !- Outside Boundary Condition
  {5dcc47af-a382-4ef3-9e93-10005b79769c}, !- Outside Boundary Condition Object
  NoSun,                                  !- Sun Exposure
  NoWind,                                 !- Wind Exposure
  ,                                       !- View Factor to Ground
  ,                                       !- Number of Vertices
  4.572, -9.144, 0,                       !- X,Y,Z Vertex 1 {m}
  4.572, 0, 0,                            !- X,Y,Z Vertex 2 {m}
  9.144, 0, 0,                            !- X,Y,Z Vertex 3 {m}
  9.144, -9.144, 0;                       !- X,Y,Z Vertex 4 {m}

OS:Surface,
  {b3175667-3767-441a-b87b-7ae703c433a3}, !- Handle
  Surface 17,                             !- Name
  Wall,                                   !- Surface Type
  ,                                       !- Construction Name
  {7be5cd1b-5ff4-497f-bde8-de736a6e831c}, !- Space Name
  Surface,                                !- Outside Boundary Condition
  {2513dd21-2107-481f-8a7d-48468af402e6}, !- Outside Boundary Condition Object
  NoSun,                                  !- Sun Exposure
  NoWind,                                 !- Wind Exposure
  ,                                       !- View Factor to Ground
  ,                                       !- Number of Vertices
  4.572, 0, 2.4384,                       !- X,Y,Z Vertex 1 {m}
  4.572, 0, 0,                            !- X,Y,Z Vertex 2 {m}
  4.572, -9.144, 0,                       !- X,Y,Z Vertex 3 {m}
  4.572, -9.144, 2.4384;                  !- X,Y,Z Vertex 4 {m}

OS:ThermalZone,
  {187a7d92-d015-4bad-b2f2-f3318d789b47}, !- Handle
  living zone|unit 3,                     !- Name
  ,                                       !- Multiplier
  ,                                       !- Ceiling Height {m}
  ,                                       !- Volume {m3}
  ,                                       !- Floor Area {m2}
  ,                                       !- Zone Inside Convection Algorithm
  ,                                       !- Zone Outside Convection Algorithm
  ,                                       !- Zone Conditioning Equipment List Name
  {d2fbd3bf-daab-41f5-b08d-d4bb59eb6231}, !- Zone Air Inlet Port List
  {263e70c0-82b6-41d0-8bc4-91de2372fd01}, !- Zone Air Exhaust Port List
  {0230af1d-e4ef-4b11-b86e-e9dd27931af5}, !- Zone Air Node Name
  {5fe6758c-9052-42d2-8a3e-d119b82ff748}, !- Zone Return Air Port List
  ,                                       !- Primary Daylighting Control Name
  ,                                       !- Fraction of Zone Controlled by Primary Daylighting Control
  ,                                       !- Secondary Daylighting Control Name
  ,                                       !- Fraction of Zone Controlled by Secondary Daylighting Control
  ,                                       !- Illuminance Map Name
  ,                                       !- Group Rendering Name
  ,                                       !- Thermostat Name
  No;                                     !- Use Ideal Air Loads

OS:Node,
  {25ac46dc-173f-490e-9eca-c0ec03a9f227}, !- Handle
  Node 3,                                 !- Name
  {0230af1d-e4ef-4b11-b86e-e9dd27931af5}, !- Inlet Port
  ;                                       !- Outlet Port

OS:Connection,
  {0230af1d-e4ef-4b11-b86e-e9dd27931af5}, !- Handle
  {ba4c195e-d517-48ea-83c8-41ca50722a8f}, !- Name
  {187a7d92-d015-4bad-b2f2-f3318d789b47}, !- Source Object
  11,                                     !- Outlet Port
  {25ac46dc-173f-490e-9eca-c0ec03a9f227}, !- Target Object
  2;                                      !- Inlet Port

OS:PortList,
  {d2fbd3bf-daab-41f5-b08d-d4bb59eb6231}, !- Handle
  {19f86c7c-d8a6-40f8-8106-2bcf842438ac}, !- Name
  {187a7d92-d015-4bad-b2f2-f3318d789b47}; !- HVAC Component

OS:PortList,
  {263e70c0-82b6-41d0-8bc4-91de2372fd01}, !- Handle
  {9cd03097-b0c7-44e3-8634-3dc6370f195c}, !- Name
  {187a7d92-d015-4bad-b2f2-f3318d789b47}; !- HVAC Component

OS:PortList,
  {5fe6758c-9052-42d2-8a3e-d119b82ff748}, !- Handle
  {8b8df549-36de-4adc-a6b4-d53c6a66b8c9}, !- Name
  {187a7d92-d015-4bad-b2f2-f3318d789b47}; !- HVAC Component

OS:Sizing:Zone,
  {57c85be9-fa86-47a1-a3c9-1be1964fb87c}, !- Handle
  {187a7d92-d015-4bad-b2f2-f3318d789b47}, !- Zone or ZoneList Name
  SupplyAirTemperature,                   !- Zone Cooling Design Supply Air Temperature Input Method
  14,                                     !- Zone Cooling Design Supply Air Temperature {C}
  11.11,                                  !- Zone Cooling Design Supply Air Temperature Difference {deltaC}