!- NOTE: Auto-generated from /test/osw_files/SFA_2story_UB_ASHP2_HPWH.osw

OS:Version,
  {6873793d-329e-41a6-8616-6d54162badbd}, !- Handle
  2.9.1;                                  !- Version Identifier

OS:SimulationControl,
  {8fce4aa8-aa42-477a-98e0-b1e2fcd1824a}, !- Handle
  ,                                       !- Do Zone Sizing Calculation
  ,                                       !- Do System Sizing Calculation
  ,                                       !- Do Plant Sizing Calculation
  No;                                     !- Run Simulation for Sizing Periods

OS:Timestep,
  {2ad672e5-0f8e-4ba1-8448-e9cba57e4b5e}, !- Handle
  6;                                      !- Number of Timesteps per Hour

OS:ShadowCalculation,
  {3f9e818c-ba5f-454d-8555-e1e6ce4c1c6e}, !- Handle
  20,                                     !- Calculation Frequency
  200;                                    !- Maximum Figures in Shadow Overlap Calculations

OS:SurfaceConvectionAlgorithm:Outside,
  {b7b8c19d-e95c-43e6-b3c7-87cafed5205b}, !- Handle
  DOE-2;                                  !- Algorithm

OS:SurfaceConvectionAlgorithm:Inside,
  {f07130c0-e17c-4acc-99a3-9b226c7c230f}, !- Handle
  TARP;                                   !- Algorithm

OS:ZoneCapacitanceMultiplier:ResearchSpecial,
  {e8b03ad3-5fb8-46e6-bf3d-c78b71b6f0fa}, !- Handle
  ,                                       !- Temperature Capacity Multiplier
  15,                                     !- Humidity Capacity Multiplier
  ;                                       !- Carbon Dioxide Capacity Multiplier

OS:RunPeriod,
  {d6fbd139-bb7b-4ebe-883a-e275d217ca23}, !- Handle
  Run Period 1,                           !- Name
  1,                                      !- Begin Month
  1,                                      !- Begin Day of Month
  12,                                     !- End Month
  31,                                     !- End Day of Month
  ,                                       !- Use Weather File Holidays and Special Days
  ,                                       !- Use Weather File Daylight Saving Period
  ,                                       !- Apply Weekend Holiday Rule
  ,                                       !- Use Weather File Rain Indicators
  ,                                       !- Use Weather File Snow Indicators
  ;                                       !- Number of Times Runperiod to be Repeated

OS:YearDescription,
  {2dab6ca9-6e35-4aaf-9ac7-8e12cd47c764}, !- Handle
  2007,                                   !- Calendar Year
  ,                                       !- Day of Week for Start Day
  ;                                       !- Is Leap Year

OS:WeatherFile,
  {4d5f378d-c7f3-4a83-a705-07422d79e468}, !- Handle
  Denver Intl Ap,                         !- City
  CO,                                     !- State Province Region
  USA,                                    !- Country
  TMY3,                                   !- Data Source
  725650,                                 !- WMO Number
  39.83,                                  !- Latitude {deg}
  -104.65,                                !- Longitude {deg}
  -7,                                     !- Time Zone {hr}
  1650,                                   !- Elevation {m}
  file:../weather/USA_CO_Denver.Intl.AP.725650_TMY3.epw, !- Url
  E23378AA;                               !- Checksum

OS:AdditionalProperties,
  {6a95a911-c805-498a-826e-1b0f74e97652}, !- Handle
  {4d5f378d-c7f3-4a83-a705-07422d79e468}, !- Object Name
  EPWHeaderCity,                          !- Feature Name 1
  String,                                 !- Feature Data Type 1
  Denver Intl Ap,                         !- Feature Value 1
  EPWHeaderState,                         !- Feature Name 2
  String,                                 !- Feature Data Type 2
  CO,                                     !- Feature Value 2
  EPWHeaderCountry,                       !- Feature Name 3
  String,                                 !- Feature Data Type 3
  USA,                                    !- Feature Value 3
  EPWHeaderDataSource,                    !- Feature Name 4
  String,                                 !- Feature Data Type 4
  TMY3,                                   !- Feature Value 4
  EPWHeaderStation,                       !- Feature Name 5
  String,                                 !- Feature Data Type 5
  725650,                                 !- Feature Value 5
  EPWHeaderLatitude,                      !- Feature Name 6
  Double,                                 !- Feature Data Type 6
  39.829999999999998,                     !- Feature Value 6
  EPWHeaderLongitude,                     !- Feature Name 7
  Double,                                 !- Feature Data Type 7
  -104.65000000000001,                    !- Feature Value 7
  EPWHeaderTimezone,                      !- Feature Name 8
  Double,                                 !- Feature Data Type 8
  -7,                                     !- Feature Value 8
  EPWHeaderAltitude,                      !- Feature Name 9
  Double,                                 !- Feature Data Type 9
  5413.3858267716532,                     !- Feature Value 9
  EPWHeaderLocalPressure,                 !- Feature Name 10
  Double,                                 !- Feature Data Type 10
  0.81937567683596546,                    !- Feature Value 10
  EPWHeaderRecordsPerHour,                !- Feature Name 11
  Double,                                 !- Feature Data Type 11
  0,                                      !- Feature Value 11
  EPWDataAnnualAvgDrybulb,                !- Feature Name 12
  Double,                                 !- Feature Data Type 12
  51.575616438356228,                     !- Feature Value 12
  EPWDataAnnualMinDrybulb,                !- Feature Name 13
  Double,                                 !- Feature Data Type 13
  -2.9200000000000017,                    !- Feature Value 13
  EPWDataAnnualMaxDrybulb,                !- Feature Name 14
  Double,                                 !- Feature Data Type 14
  104,                                    !- Feature Value 14
  EPWDataCDD50F,                          !- Feature Name 15
  Double,                                 !- Feature Data Type 15
  3072.2925000000005,                     !- Feature Value 15
  EPWDataCDD65F,                          !- Feature Name 16
  Double,                                 !- Feature Data Type 16
  883.62000000000035,                     !- Feature Value 16
  EPWDataHDD50F,                          !- Feature Name 17
  Double,                                 !- Feature Data Type 17
  2497.1925000000001,                     !- Feature Value 17
  EPWDataHDD65F,                          !- Feature Name 18
  Double,                                 !- Feature Data Type 18
  5783.5200000000013,                     !- Feature Value 18
  EPWDataAnnualAvgWindspeed,              !- Feature Name 19
  Double,                                 !- Feature Data Type 19
  3.9165296803649667,                     !- Feature Value 19
  EPWDataMonthlyAvgDrybulbs,              !- Feature Name 20
  String,                                 !- Feature Data Type 20
  33.4191935483871&#4431.90142857142857&#4443.02620967741937&#4442.48624999999999&#4459.877741935483854&#4473.57574999999997&#4472.07975806451608&#4472.70008064516134&#4466.49200000000006&#4450.079112903225806&#4437.218250000000005&#4434.582177419354835, !- Feature Value 20
  EPWDataGroundMonthlyTemps,              !- Feature Name 21
  String,                                 !- Feature Data Type 21
  44.08306285945173&#4440.89570904991865&#4440.64045432632048&#4442.153016571250646&#4448.225111118704206&#4454.268919273837525&#4459.508577937551024&#4462.82777283423508&#4463.10975667174995&#4460.41014950381947&#4455.304105212311526&#4449.445696474514364, !- Feature Value 21
  EPWDataWSF,                             !- Feature Name 22
  Double,                                 !- Feature Data Type 22
  0.58999999999999997,                    !- Feature Value 22
  EPWDataMonthlyAvgDailyHighDrybulbs,     !- Feature Name 23
  String,                                 !- Feature Data Type 23
  47.41032258064516&#4446.58642857142857&#4455.15032258064517&#4453.708&#4472.80193548387098&#4488.67600000000002&#4486.1858064516129&#4485.87225806451613&#4482.082&#4463.18064516129033&#4448.73400000000001&#4448.87935483870968, !- Feature Value 23
  EPWDataMonthlyAvgDailyLowDrybulbs,      !- Feature Name 24
  String,                                 !- Feature Data Type 24
  19.347741935483874&#4419.856428571428573&#4430.316129032258065&#4431.112&#4447.41612903225806&#4457.901999999999994&#4459.063870967741934&#4460.956774193548384&#4452.352000000000004&#4438.41612903225806&#4427.002000000000002&#4423.02903225806451, !- Feature Value 24
  EPWDesignHeatingDrybulb,                !- Feature Name 25
  Double,                                 !- Feature Data Type 25
  12.02,                                  !- Feature Value 25
  EPWDesignHeatingWindspeed,              !- Feature Name 26
  Double,                                 !- Feature Data Type 26
  2.8062500000000004,                     !- Feature Value 26
  EPWDesignCoolingDrybulb,                !- Feature Name 27
  Double,                                 !- Feature Data Type 27
  91.939999999999998,                     !- Feature Value 27
  EPWDesignCoolingWetbulb,                !- Feature Name 28
  Double,                                 !- Feature Data Type 28
  59.95131430195849,                      !- Feature Value 28
  EPWDesignCoolingHumidityRatio,          !- Feature Name 29
  Double,                                 !- Feature Data Type 29
  0.0059161086834698092,                  !- Feature Value 29
  EPWDesignCoolingWindspeed,              !- Feature Name 30
  Double,                                 !- Feature Data Type 30
  3.7999999999999989,                     !- Feature Value 30
  EPWDesignDailyTemperatureRange,         !- Feature Name 31
  Double,                                 !- Feature Data Type 31
  24.915483870967748,                     !- Feature Value 31
  EPWDesignDehumidDrybulb,                !- Feature Name 32
  Double,                                 !- Feature Data Type 32
  67.996785714285721,                     !- Feature Value 32
  EPWDesignDehumidHumidityRatio,          !- Feature Name 33
  Double,                                 !- Feature Data Type 33
  0.012133744170488724,                   !- Feature Value 33
  EPWDesignCoolingDirectNormal,           !- Feature Name 34
  Double,                                 !- Feature Data Type 34
  985,                                    !- Feature Value 34
  EPWDesignCoolingDiffuseHorizontal,      !- Feature Name 35
  Double,                                 !- Feature Data Type 35
  84;                                     !- Feature Value 35

OS:Site,
  {73a5f78b-5f11-4755-b822-4b22a3574cd0}, !- Handle
  Denver Intl Ap_CO_USA,                  !- Name
  39.83,                                  !- Latitude {deg}
  -104.65,                                !- Longitude {deg}
  -7,                                     !- Time Zone {hr}
  1650,                                   !- Elevation {m}
  Suburbs;                                !- Terrain

OS:ClimateZones,
  {9c19f509-3713-4ef9-8715-7f93c0dbfeaa}, !- Handle
  ,                                       !- Active Institution
  ,                                       !- Active Year
  ,                                       !- Climate Zone Institution Name 1
  ,                                       !- Climate Zone Document Name 1
  ,                                       !- Climate Zone Document Year 1
  ,                                       !- Climate Zone Value 1
  Building America,                       !- Climate Zone Institution Name 2
  ,                                       !- Climate Zone Document Name 2
  0,                                      !- Climate Zone Document Year 2
  Cold;                                   !- Climate Zone Value 2

OS:Site:WaterMainsTemperature,
  {d3371591-f3f9-4a86-be29-456539d2d507}, !- Handle
  Correlation,                            !- Calculation Method
  ,                                       !- Temperature Schedule Name
  10.8753424657535,                       !- Annual Average Outdoor Air Temperature {C}
  23.1524007936508;                       !- Maximum Difference In Monthly Average Outdoor Air Temperatures {deltaC}

OS:RunPeriodControl:DaylightSavingTime,
  {a2f49564-03db-4899-af53-e8b8bd2607a7}, !- Handle
  4/7,                                    !- Start Date
  10/26;                                  !- End Date

OS:Site:GroundTemperature:Deep,
  {592941f0-9cb4-4cf5-9094-a0761a428a86}, !- Handle
  10.8753424657535,                       !- January Deep Ground Temperature {C}
  10.8753424657535,                       !- February Deep Ground Temperature {C}
  10.8753424657535,                       !- March Deep Ground Temperature {C}
  10.8753424657535,                       !- April Deep Ground Temperature {C}
  10.8753424657535,                       !- May Deep Ground Temperature {C}
  10.8753424657535,                       !- June Deep Ground Temperature {C}
  10.8753424657535,                       !- July Deep Ground Temperature {C}
  10.8753424657535,                       !- August Deep Ground Temperature {C}
  10.8753424657535,                       !- September Deep Ground Temperature {C}
  10.8753424657535,                       !- October Deep Ground Temperature {C}
  10.8753424657535,                       !- November Deep Ground Temperature {C}
  10.8753424657535;                       !- December Deep Ground Temperature {C}

OS:Building,
  {15f6589c-9a44-4952-989a-e25543496822}, !- Handle
  Building 1,                             !- Name
  ,                                       !- Building Sector Type
  270,                                    !- North Axis {deg}
  ,                                       !- Nominal Floor to Floor Height {m}
  ,                                       !- Space Type Name
  ,                                       !- Default Construction Set Name
  ,                                       !- Default Schedule Set Name
  3,                                      !- Standards Number of Stories
  2,                                      !- Standards Number of Above Ground Stories
  ,                                       !- Standards Template
  singlefamilyattached,                   !- Standards Building Type
  4;                                      !- Standards Number of Living Units

OS:AdditionalProperties,
  {ab1b4dc9-2247-4d6e-9383-d5d0287235dc}, !- Handle
  {15f6589c-9a44-4952-989a-e25543496822}, !- Object Name
  Total Units Represented,                !- Feature Name 1
  Integer,                                !- Feature Data Type 1
  4,                                      !- Feature Value 1
  Total Units Modeled,                    !- Feature Name 2
  Integer,                                !- Feature Data Type 2
  4;                                      !- Feature Value 2

OS:ThermalZone,
  {928a8d00-1bb3-4a14-8fa0-a666f96fbf4d}, !- Handle
  living zone,                            !- Name
  ,                                       !- Multiplier
  ,                                       !- Ceiling Height {m}
  ,                                       !- Volume {m3}
  ,                                       !- Floor Area {m2}
  ,                                       !- Zone Inside Convection Algorithm
  ,                                       !- Zone Outside Convection Algorithm
  ,                                       !- Zone Conditioning Equipment List Name
  {7d8ec02c-7bc4-4d10-a9a9-7d25afe86395}, !- Zone Air Inlet Port List
  {899d833a-6d45-44e0-a172-b3836dc9372a}, !- Zone Air Exhaust Port List
  {cde544cb-dca0-41c3-9793-81f84394e764}, !- Zone Air Node Name
  {8b1ad534-9096-4976-8c63-7c5f11c411ba}, !- Zone Return Air Port List
  ,                                       !- Primary Daylighting Control Name
  ,                                       !- Fraction of Zone Controlled by Primary Daylighting Control
  ,                                       !- Secondary Daylighting Control Name
  ,                                       !- Fraction of Zone Controlled by Secondary Daylighting Control
  ,                                       !- Illuminance Map Name
  ,                                       !- Group Rendering Name
  {3083441c-a364-41b0-9550-91ce4817e491}, !- Thermostat Name
  No;                                     !- Use Ideal Air Loads

OS:Node,
  {d910a406-f1c8-42c2-b3f4-615d670369fc}, !- Handle
  Node 1,                                 !- Name
  {cde544cb-dca0-41c3-9793-81f84394e764}, !- Inlet Port
  ;                                       !- Outlet Port

OS:Connection,
  {cde544cb-dca0-41c3-9793-81f84394e764}, !- Handle
  {eaa55260-0210-4377-b18e-5776c6e16201}, !- Name
  {928a8d00-1bb3-4a14-8fa0-a666f96fbf4d}, !- Source Object
  11,                                     !- Outlet Port
  {d910a406-f1c8-42c2-b3f4-615d670369fc}, !- Target Object
  2;                                      !- Inlet Port

OS:PortList,
  {7d8ec02c-7bc4-4d10-a9a9-7d25afe86395}, !- Handle
  {888f8227-4113-4913-a706-247b27cba55a}, !- Name
  {928a8d00-1bb3-4a14-8fa0-a666f96fbf4d}, !- HVAC Component
  {c70280da-2e2c-4c4a-b508-f637691b049e}, !- Port 1
  {04664f21-6a94-422f-8eff-46d2e93a6121}; !- Port 2

OS:PortList,
  {899d833a-6d45-44e0-a172-b3836dc9372a}, !- Handle
  {75d78258-d30b-41e4-abdf-4259dfc4c943}, !- Name
  {928a8d00-1bb3-4a14-8fa0-a666f96fbf4d}; !- HVAC Component

OS:PortList,
  {8b1ad534-9096-4976-8c63-7c5f11c411ba}, !- Handle
  {63a68106-6302-4394-b654-c78baa7ae783}, !- Name
  {928a8d00-1bb3-4a14-8fa0-a666f96fbf4d}, !- HVAC Component
  {c6bd94c0-9161-439f-9eb6-642ae1da8bff}, !- Port 1
  {2a7e5aee-6952-41c7-866e-9403c1c10809}; !- Port 2

OS:Sizing:Zone,
  {40ae286f-c3f6-4d78-bbc9-ab0e6f1b3034}, !- Handle
  {928a8d00-1bb3-4a14-8fa0-a666f96fbf4d}, !- Zone or ZoneList Name
  SupplyAirTemperature,                   !- Zone Cooling Design Supply Air Temperature Input Method
  14,                                     !- Zone Cooling Design Supply Air Temperature {C}
  11.11,                                  !- Zone Cooling Design Supply Air Temperature Difference {deltaC}
  SupplyAirTemperature,                   !- Zone Heating Design Supply Air Temperature Input Method
  40,                                     !- Zone Heating Design Supply Air Temperature {C}
  11.11,                                  !- Zone Heating Design Supply Air Temperature Difference {deltaC}
  0.0085,                                 !- Zone Cooling Design Supply Air Humidity Ratio {kg-H2O/kg-air}
  0.008,                                  !- Zone Heating Design Supply Air Humidity Ratio {kg-H2O/kg-air}
  ,                                       !- Zone Heating Sizing Factor
  ,                                       !- Zone Cooling Sizing Factor
  DesignDay,                              !- Cooling Design Air Flow Method
  ,                                       !- Cooling Design Air Flow Rate {m3/s}
  ,                                       !- Cooling Minimum Air Flow per Zone Floor Area {m3/s-m2}
  ,                                       !- Cooling Minimum Air Flow {m3/s}
  ,                                       !- Cooling Minimum Air Flow Fraction
  DesignDay,                              !- Heating Design Air Flow Method
  ,                                       !- Heating Design Air Flow Rate {m3/s}
  ,                                       !- Heating Maximum Air Flow per Zone Floor Area {m3/s-m2}
  ,                                       !- Heating Maximum Air Flow {m3/s}
  ,                                       !- Heating Maximum Air Flow Fraction
  ,                                       !- Design Zone Air Distribution Effectiveness in Cooling Mode
  ,                                       !- Design Zone Air Distribution Effectiveness in Heating Mode
  No,                                     !- Account for Dedicated Outdoor Air System
  NeutralSupplyAir,                       !- Dedicated Outdoor Air System Control Strategy
  autosize,                               !- Dedicated Outdoor Air Low Setpoint Temperature for Design {C}
  autosize;                               !- Dedicated Outdoor Air High Setpoint Temperature for Design {C}

OS:ZoneHVAC:EquipmentList,
  {ae684341-743f-46dd-857b-9f6a8e0d6508}, !- Handle
  Zone HVAC Equipment List 1,             !- Name
  {928a8d00-1bb3-4a14-8fa0-a666f96fbf4d}, !- Thermal Zone
  SequentialLoad,                         !- Load Distribution Scheme
  {f707c106-f46b-404d-9f04-655d917e9826}, !- Zone Equipment 1
  1,                                      !- Zone Equipment Cooling Sequence 1
  1,                                      !- Zone Equipment Heating or No-Load Sequence 1
  ,                                       !- Zone Equipment Sequential Cooling Fraction Schedule Name 1
  ,                                       !- Zone Equipment Sequential Heating Fraction Schedule Name 1
  {4e421f72-d77f-4cd2-a1fd-6b7b939d4963}, !- Zone Equipment 2
  2,                                      !- Zone Equipment Cooling Sequence 2
  2,                                      !- Zone Equipment Heating or No-Load Sequence 2
  ,                                       !- Zone Equipment Sequential Cooling Fraction Schedule Name 2
  ;                                       !- Zone Equipment Sequential Heating Fraction Schedule Name 2

OS:Space,
  {5d34ae5e-f75b-4537-8e10-ad760503f3ef}, !- Handle
  living space,                           !- Name
  {3d9f0859-d9f2-402c-b1b7-c2e482a524a7}, !- Space Type Name
  ,                                       !- Default Construction Set Name
  ,                                       !- Default Schedule Set Name
  ,                                       !- Direction of Relative North {deg}
  ,                                       !- X Origin {m}
  ,                                       !- Y Origin {m}
  ,                                       !- Z Origin {m}
  ,                                       !- Building Story Name
  {928a8d00-1bb3-4a14-8fa0-a666f96fbf4d}, !- Thermal Zone Name
  ,                                       !- Part of Total Floor Area
  ,                                       !- Design Specification Outdoor Air Object Name
  {f35c3e30-3279-44c4-828b-b8033e4b11f3}; !- Building Unit Name

OS:Surface,
  {c7874f22-1636-47f9-a85f-f626bd519933}, !- Handle
  Surface 1,                              !- Name
  Floor,                                  !- Surface Type
  {f324594f-a8ee-4fda-ad6d-04c53675a09e}, !- Construction Name
  {5d34ae5e-f75b-4537-8e10-ad760503f3ef}, !- Space Name
  Surface,                                !- Outside Boundary Condition
  {94b974f9-01d0-4626-b550-30d664e79461}, !- Outside Boundary Condition Object
  NoSun,                                  !- Sun Exposure
  NoWind,                                 !- Wind Exposure
  ,                                       !- View Factor to Ground
  ,                                       !- Number of Vertices
  0, -6.46578440716979, 0,                !- X,Y,Z Vertex 1 {m}
  0, 0, 0,                                !- X,Y,Z Vertex 2 {m}
  3.59210244842766, 0, 0,                 !- X,Y,Z Vertex 3 {m}
  3.59210244842766, -6.46578440716979, 0; !- X,Y,Z Vertex 4 {m}

OS:Surface,
  {8e7d9c33-429a-41c0-a365-e20c61b9a8ae}, !- Handle
  Surface 2,                              !- Name
  Wall,                                   !- Surface Type
  {962d4172-4f5a-42b3-b33d-133fb3bf373b}, !- Construction Name
  {5d34ae5e-f75b-4537-8e10-ad760503f3ef}, !- Space Name
  Outdoors,                               !- Outside Boundary Condition
  ,                                       !- Outside Boundary Condition Object
  SunExposed,                             !- Sun Exposure
  WindExposed,                            !- Wind Exposure
  ,                                       !- View Factor to Ground
  ,                                       !- Number of Vertices
  0, 0, 2.4384,                           !- X,Y,Z Vertex 1 {m}
  0, 0, 0,                                !- X,Y,Z Vertex 2 {m}
  0, -6.46578440716979, 0,                !- X,Y,Z Vertex 3 {m}
  0, -6.46578440716979, 2.4384;           !- X,Y,Z Vertex 4 {m}

OS:Surface,
  {b3b0192d-d5cd-4c93-9892-42fcf69b7c6a}, !- Handle
  Surface 3,                              !- Name
  Wall,                                   !- Surface Type
  {962d4172-4f5a-42b3-b33d-133fb3bf373b}, !- Construction Name
  {5d34ae5e-f75b-4537-8e10-ad760503f3ef}, !- Space Name
  Outdoors,                               !- Outside Boundary Condition
  ,                                       !- Outside Boundary Condition Object
  SunExposed,                             !- Sun Exposure
  WindExposed,                            !- Wind Exposure
  ,                                       !- View Factor to Ground
  ,                                       !- Number of Vertices
  3.59210244842766, 0, 2.4384,            !- X,Y,Z Vertex 1 {m}
  3.59210244842766, 0, 0,                 !- X,Y,Z Vertex 2 {m}
  0, 0, 0,                                !- X,Y,Z Vertex 3 {m}
  0, 0, 2.4384;                           !- X,Y,Z Vertex 4 {m}

OS:Surface,
  {d4f97d25-6b5d-4b4d-8deb-4b9a41fcb72d}, !- Handle
  Surface 4,                              !- Name
  Wall,                                   !- Surface Type
  {d9080d5f-9188-4ffd-9155-261434f7684b}, !- Construction Name
  {5d34ae5e-f75b-4537-8e10-ad760503f3ef}, !- Space Name
  Surface,                                !- Outside Boundary Condition
  {163c6987-833f-4a3c-a912-c3209c98eeef}, !- Outside Boundary Condition Object
  NoSun,                                  !- Sun Exposure
  NoWind,                                 !- Wind Exposure
  ,                                       !- View Factor to Ground
  ,                                       !- Number of Vertices
  3.59210244842766, -6.46578440716979, 2.4384, !- X,Y,Z Vertex 1 {m}
  3.59210244842766, -6.46578440716979, 0, !- X,Y,Z Vertex 2 {m}
  3.59210244842766, 0, 0,                 !- X,Y,Z Vertex 3 {m}
  3.59210244842766, 0, 2.4384;            !- X,Y,Z Vertex 4 {m}

OS:Surface,
  {25cae861-4a6c-4be9-b917-91dc9b52891d}, !- Handle
  Surface 5,                              !- Name
  Wall,                                   !- Surface Type
  {962d4172-4f5a-42b3-b33d-133fb3bf373b}, !- Construction Name
  {5d34ae5e-f75b-4537-8e10-ad760503f3ef}, !- Space Name
  Outdoors,                               !- Outside Boundary Condition
  ,                                       !- Outside Boundary Condition Object
  SunExposed,                             !- Sun Exposure
  WindExposed,                            !- Wind Exposure
  ,                                       !- View Factor to Ground
  ,                                       !- Number of Vertices
  3.59210244842766, -6.46578440716979, 0, !- X,Y,Z Vertex 1 {m}
  3.59210244842766, -6.46578440716979, 2.4384, !- X,Y,Z Vertex 2 {m}
  1.04865714285714, -6.46578440716979, 2.4384, !- X,Y,Z Vertex 3 {m}
  1.04865714285714, -6.46578440716979, 0; !- X,Y,Z Vertex 4 {m}

OS:Surface,
  {2b790ec8-e2da-49ab-b8a1-62e1b83a6e7e}, !- Handle
  Surface 6,                              !- Name
  RoofCeiling,                            !- Surface Type
  {3c003b04-bf50-45a6-9192-23862cc2d022}, !- Construction Name
  {5d34ae5e-f75b-4537-8e10-ad760503f3ef}, !- Space Name
  Surface,                                !- Outside Boundary Condition
  {8a54f0c5-d032-4815-8167-87cbba6a847b}, !- Outside Boundary Condition Object
  NoSun,                                  !- Sun Exposure
  NoWind,                                 !- Wind Exposure
  ,                                       !- View Factor to Ground
  ,                                       !- Number of Vertices
  3.59210244842766, -6.46578440716979, 2.4384, !- X,Y,Z Vertex 1 {m}
  3.59210244842766, 0, 2.4384,            !- X,Y,Z Vertex 2 {m}
  0, 0, 2.4384,                           !- X,Y,Z Vertex 3 {m}
  0, -6.46578440716979, 2.4384;           !- X,Y,Z Vertex 4 {m}

OS:SpaceType,
  {3d9f0859-d9f2-402c-b1b7-c2e482a524a7}, !- Handle
  Space Type 1,                           !- Name
  ,                                       !- Default Construction Set Name
  ,                                       !- Default Schedule Set Name
  ,                                       !- Group Rendering Name
  ,                                       !- Design Specification Outdoor Air Object Name
  ,                                       !- Standards Template
  ,                                       !- Standards Building Type
  living;                                 !- Standards Space Type

OS:Space,
  {40e5dc38-79cc-41cc-8ea4-a72a5e536a27}, !- Handle
  living space|story 2,                   !- Name
  {3d9f0859-d9f2-402c-b1b7-c2e482a524a7}, !- Space Type Name
  ,                                       !- Default Construction Set Name
  ,                                       !- Default Schedule Set Name
  -0,                                     !- Direction of Relative North {deg}
  0,                                      !- X Origin {m}
  0,                                      !- Y Origin {m}
  2.4384,                                 !- Z Origin {m}
  ,                                       !- Building Story Name
  {928a8d00-1bb3-4a14-8fa0-a666f96fbf4d}, !- Thermal Zone Name
  ,                                       !- Part of Total Floor Area
  ,                                       !- Design Specification Outdoor Air Object Name
  {f35c3e30-3279-44c4-828b-b8033e4b11f3}; !- Building Unit Name

OS:Surface,
  {d16913b7-94a7-41d6-bed7-0d7d84394205}, !- Handle
  Surface 7,                              !- Name