!- NOTE: Auto-generated from /test/osw_files/SFA_4units_1story_SL_UA_3Beds_2Baths_Denver.osw

OS:Version,
  {fab971d4-fb74-479a-8a75-014ceef0a7ef}, !- Handle
  2.9.0;                                  !- Version Identifier

OS:SimulationControl,
  {6f4fab70-d086-4899-af24-7f59ec0e5299}, !- Handle
  ,                                       !- Do Zone Sizing Calculation
  ,                                       !- Do System Sizing Calculation
  ,                                       !- Do Plant Sizing Calculation
  No;                                     !- Run Simulation for Sizing Periods

OS:Timestep,
  {80c0b170-7af4-40a5-8927-2bb5b98b99c4}, !- Handle
  6;                                      !- Number of Timesteps per Hour

OS:ShadowCalculation,
  {870de90f-79bc-4288-a541-15f78e56b73a}, !- Handle
  20,                                     !- Calculation Frequency
  200;                                    !- Maximum Figures in Shadow Overlap Calculations

OS:SurfaceConvectionAlgorithm:Outside,
  {075be071-08c9-4e7f-90bf-1e44fc803af4}, !- Handle
  DOE-2;                                  !- Algorithm

OS:SurfaceConvectionAlgorithm:Inside,
  {e8bbe7f4-d7ba-43f8-ac8b-6ce06abdea67}, !- Handle
  TARP;                                   !- Algorithm

OS:ZoneCapacitanceMultiplier:ResearchSpecial,
  {fc4d56de-0c7f-426a-95d4-4c8d54609d65}, !- Handle
  ,                                       !- Temperature Capacity Multiplier
  15,                                     !- Humidity Capacity Multiplier
  ;                                       !- Carbon Dioxide Capacity Multiplier

OS:RunPeriod,
  {443f5763-24de-4c7a-aec9-f119f87b6c06}, !- Handle
  Run Period 1,                           !- Name
  1,                                      !- Begin Month
  1,                                      !- Begin Day of Month
  12,                                     !- End Month
  31,                                     !- End Day of Month
  ,                                       !- Use Weather File Holidays and Special Days
  ,                                       !- Use Weather File Daylight Saving Period
  ,                                       !- Apply Weekend Holiday Rule
  ,                                       !- Use Weather File Rain Indicators
  ,                                       !- Use Weather File Snow Indicators
  ;                                       !- Number of Times Runperiod to be Repeated

OS:YearDescription,
  {7742690e-7c7a-44da-9e5b-efe2af9afcc0}, !- Handle
  2007,                                   !- Calendar Year
  ,                                       !- Day of Week for Start Day
  ;                                       !- Is Leap Year

OS:ThermalZone,
  {37dd1357-fddb-49d9-9f60-53de7ba24b0e}, !- Handle
  living zone,                            !- Name
  ,                                       !- Multiplier
  ,                                       !- Ceiling Height {m}
  ,                                       !- Volume {m3}
  ,                                       !- Floor Area {m2}
  ,                                       !- Zone Inside Convection Algorithm
  ,                                       !- Zone Outside Convection Algorithm
  ,                                       !- Zone Conditioning Equipment List Name
  {78ce1c4f-3c5d-4769-9305-887d50a35572}, !- Zone Air Inlet Port List
  {11bfd765-1562-4a95-a901-871056737fde}, !- Zone Air Exhaust Port List
  {6ca85222-e5c8-4c21-809d-f78bc32626ca}, !- Zone Air Node Name
  {b6426070-5ed6-41f3-bee6-6323a92060ab}, !- Zone Return Air Port List
  ,                                       !- Primary Daylighting Control Name
  ,                                       !- Fraction of Zone Controlled by Primary Daylighting Control
  ,                                       !- Secondary Daylighting Control Name
  ,                                       !- Fraction of Zone Controlled by Secondary Daylighting Control
  ,                                       !- Illuminance Map Name
  ,                                       !- Group Rendering Name
  ,                                       !- Thermostat Name
  No;                                     !- Use Ideal Air Loads

OS:Node,
  {a5b78718-7198-4d38-b51e-21445cd039df}, !- Handle
  Node 1,                                 !- Name
  {6ca85222-e5c8-4c21-809d-f78bc32626ca}, !- Inlet Port
  ;                                       !- Outlet Port

OS:Connection,
  {6ca85222-e5c8-4c21-809d-f78bc32626ca}, !- Handle
  {a0a4ff80-b31e-41ee-856a-f81a40497ec4}, !- Name
  {37dd1357-fddb-49d9-9f60-53de7ba24b0e}, !- Source Object
  11,                                     !- Outlet Port
  {a5b78718-7198-4d38-b51e-21445cd039df}, !- Target Object
  2;                                      !- Inlet Port

OS:PortList,
  {78ce1c4f-3c5d-4769-9305-887d50a35572}, !- Handle
  {0e157f85-3b63-4b9f-a1ae-6ff4f35238a2}, !- Name
  {37dd1357-fddb-49d9-9f60-53de7ba24b0e}; !- HVAC Component

OS:PortList,
  {11bfd765-1562-4a95-a901-871056737fde}, !- Handle
  {313a3bbd-8018-4f39-b95a-27cedf974a5c}, !- Name
  {37dd1357-fddb-49d9-9f60-53de7ba24b0e}; !- HVAC Component

OS:PortList,
  {b6426070-5ed6-41f3-bee6-6323a92060ab}, !- Handle
  {76337a94-cb41-4812-a3c6-7e14c4a8ec37}, !- Name
  {37dd1357-fddb-49d9-9f60-53de7ba24b0e}; !- HVAC Component

OS:Sizing:Zone,
  {c7181ef0-9fc5-4f0b-a09b-76a3338d88e4}, !- Handle
  {37dd1357-fddb-49d9-9f60-53de7ba24b0e}, !- Zone or ZoneList Name
  SupplyAirTemperature,                   !- Zone Cooling Design Supply Air Temperature Input Method
  14,                                     !- Zone Cooling Design Supply Air Temperature {C}
  11.11,                                  !- Zone Cooling Design Supply Air Temperature Difference {deltaC}
  SupplyAirTemperature,                   !- Zone Heating Design Supply Air Temperature Input Method
  40,                                     !- Zone Heating Design Supply Air Temperature {C}
  11.11,                                  !- Zone Heating Design Supply Air Temperature Difference {deltaC}
  0.0085,                                 !- Zone Cooling Design Supply Air Humidity Ratio {kg-H2O/kg-air}
  0.008,                                  !- Zone Heating Design Supply Air Humidity Ratio {kg-H2O/kg-air}
  ,                                       !- Zone Heating Sizing Factor
  ,                                       !- Zone Cooling Sizing Factor
  DesignDay,                              !- Cooling Design Air Flow Method
  ,                                       !- Cooling Design Air Flow Rate {m3/s}
  ,                                       !- Cooling Minimum Air Flow per Zone Floor Area {m3/s-m2}
  ,                                       !- Cooling Minimum Air Flow {m3/s}
  ,                                       !- Cooling Minimum Air Flow Fraction
  DesignDay,                              !- Heating Design Air Flow Method
  ,                                       !- Heating Design Air Flow Rate {m3/s}
  ,                                       !- Heating Maximum Air Flow per Zone Floor Area {m3/s-m2}
  ,                                       !- Heating Maximum Air Flow {m3/s}
  ,                                       !- Heating Maximum Air Flow Fraction
  ,                                       !- Design Zone Air Distribution Effectiveness in Cooling Mode
  ,                                       !- Design Zone Air Distribution Effectiveness in Heating Mode
  No,                                     !- Account for Dedicated Outdoor Air System
  NeutralSupplyAir,                       !- Dedicated Outdoor Air System Control Strategy
  autosize,                               !- Dedicated Outdoor Air Low Setpoint Temperature for Design {C}
  autosize;                               !- Dedicated Outdoor Air High Setpoint Temperature for Design {C}

OS:ZoneHVAC:EquipmentList,
  {9c748f95-ba44-4993-99d8-6744b894028f}, !- Handle
  Zone HVAC Equipment List 1,             !- Name
  {37dd1357-fddb-49d9-9f60-53de7ba24b0e}; !- Thermal Zone

OS:Space,
  {57c308c3-a0dc-4ed7-bc62-d3abac366969}, !- Handle
  living space,                           !- Name
  {bb00ae09-938a-47c5-9c9d-b03a79a3d32a}, !- Space Type Name
  ,                                       !- Default Construction Set Name
  ,                                       !- Default Schedule Set Name
  ,                                       !- Direction of Relative North {deg}
  ,                                       !- X Origin {m}
  ,                                       !- Y Origin {m}
  ,                                       !- Z Origin {m}
  ,                                       !- Building Story Name
  {37dd1357-fddb-49d9-9f60-53de7ba24b0e}, !- Thermal Zone Name
  ,                                       !- Part of Total Floor Area
  ,                                       !- Design Specification Outdoor Air Object Name
  {172d7bb8-9dc2-4b0d-88e9-80aaedd48471}; !- Building Unit Name

OS:Surface,
  {0fd1d021-da6d-4e64-838d-b0bfc2e7df13}, !- Handle
  Surface 1,                              !- Name
  Floor,                                  !- Surface Type
  ,                                       !- Construction Name
  {57c308c3-a0dc-4ed7-bc62-d3abac366969}, !- Space Name
  Foundation,                             !- Outside Boundary Condition
  ,                                       !- Outside Boundary Condition Object
  NoSun,                                  !- Sun Exposure
  NoWind,                                 !- Wind Exposure
  ,                                       !- View Factor to Ground
  ,                                       !- Number of Vertices
  0, -12.9315688143396, 0,                !- X,Y,Z Vertex 1 {m}
  0, 0, 0,                                !- X,Y,Z Vertex 2 {m}
  6.46578440716979, 0, 0,                 !- X,Y,Z Vertex 3 {m}
  6.46578440716979, -12.9315688143396, 0; !- X,Y,Z Vertex 4 {m}

OS:Surface,
  {caef2c96-8a7b-4607-b55f-fda484c50cf6}, !- Handle
  Surface 2,                              !- Name
  Wall,                                   !- Surface Type
  ,                                       !- Construction Name
  {57c308c3-a0dc-4ed7-bc62-d3abac366969}, !- Space Name
  Outdoors,                               !- Outside Boundary Condition
  ,                                       !- Outside Boundary Condition Object
  SunExposed,                             !- Sun Exposure
  WindExposed,                            !- Wind Exposure
  ,                                       !- View Factor to Ground
  ,                                       !- Number of Vertices
  0, 0, 2.4384,                           !- X,Y,Z Vertex 1 {m}
  0, 0, 0,                                !- X,Y,Z Vertex 2 {m}
  0, -12.9315688143396, 0,                !- X,Y,Z Vertex 3 {m}
  0, -12.9315688143396, 2.4384;           !- X,Y,Z Vertex 4 {m}

OS:Surface,
  {fa7d8b6a-25a5-4425-a029-9490d7d78e24}, !- Handle
  Surface 3,                              !- Name
  Wall,                                   !- Surface Type
  ,                                       !- Construction Name
  {57c308c3-a0dc-4ed7-bc62-d3abac366969}, !- Space Name
  Outdoors,                               !- Outside Boundary Condition
  ,                                       !- Outside Boundary Condition Object
  SunExposed,                             !- Sun Exposure
  WindExposed,                            !- Wind Exposure
  ,                                       !- View Factor to Ground
  ,                                       !- Number of Vertices
  6.46578440716979, 0, 2.4384,            !- X,Y,Z Vertex 1 {m}
  6.46578440716979, 0, 0,                 !- X,Y,Z Vertex 2 {m}
  0, 0, 0,                                !- X,Y,Z Vertex 3 {m}
  0, 0, 2.4384;                           !- X,Y,Z Vertex 4 {m}

OS:Surface,
  {88724f54-9d28-4536-a6a2-3046f885d4cc}, !- Handle
  Surface 4,                              !- Name
  Wall,                                   !- Surface Type
  ,                                       !- Construction Name
  {57c308c3-a0dc-4ed7-bc62-d3abac366969}, !- Space Name
  Adiabatic,                              !- Outside Boundary Condition
  ,                                       !- Outside Boundary Condition Object
  NoSun,                                  !- Sun Exposure
  NoWind,                                 !- Wind Exposure
  ,                                       !- View Factor to Ground
  ,                                       !- Number of Vertices
  6.46578440716979, -12.9315688143396, 2.4384, !- X,Y,Z Vertex 1 {m}
  6.46578440716979, -12.9315688143396, 0, !- X,Y,Z Vertex 2 {m}
  6.46578440716979, 0, 0,                 !- X,Y,Z Vertex 3 {m}
  6.46578440716979, 0, 2.4384;            !- X,Y,Z Vertex 4 {m}

OS:Surface,
  {5552ca5e-bd28-4a99-9925-e0acf5d76306}, !- Handle
  Surface 5,                              !- Name
  Wall,                                   !- Surface Type
  ,                                       !- Construction Name
  {57c308c3-a0dc-4ed7-bc62-d3abac366969}, !- Space Name
  Outdoors,                               !- Outside Boundary Condition
  ,                                       !- Outside Boundary Condition Object
  SunExposed,                             !- Sun Exposure
  WindExposed,                            !- Wind Exposure
  ,                                       !- View Factor to Ground
  ,                                       !- Number of Vertices
  0, -12.9315688143396, 2.4384,           !- X,Y,Z Vertex 1 {m}
  0, -12.9315688143396, 0,                !- X,Y,Z Vertex 2 {m}
  6.46578440716979, -12.9315688143396, 0, !- X,Y,Z Vertex 3 {m}
  6.46578440716979, -12.9315688143396, 2.4384; !- X,Y,Z Vertex 4 {m}

OS:Surface,
  {4bc7b003-4ca1-4b8e-b777-8a700602916a}, !- Handle
  Surface 6,                              !- Name
  RoofCeiling,                            !- Surface Type
  ,                                       !- Construction Name
  {57c308c3-a0dc-4ed7-bc62-d3abac366969}, !- Space Name
  Surface,                                !- Outside Boundary Condition
  {2db1aab7-4de3-43e6-95f1-c362da0afba8}, !- Outside Boundary Condition Object
  NoSun,                                  !- Sun Exposure
  NoWind,                                 !- Wind Exposure
  ,                                       !- View Factor to Ground
  ,                                       !- Number of Vertices
  6.46578440716979, -12.9315688143396, 2.4384, !- X,Y,Z Vertex 1 {m}
  6.46578440716979, 0, 2.4384,            !- X,Y,Z Vertex 2 {m}
  0, 0, 2.4384,                           !- X,Y,Z Vertex 3 {m}
  0, -12.9315688143396, 2.4384;           !- X,Y,Z Vertex 4 {m}

OS:SpaceType,
  {bb00ae09-938a-47c5-9c9d-b03a79a3d32a}, !- Handle
  Space Type 1,                           !- Name
  ,                                       !- Default Construction Set Name
  ,                                       !- Default Schedule Set Name
  ,                                       !- Group Rendering Name
  ,                                       !- Design Specification Outdoor Air Object Name
  ,                                       !- Standards Template
  ,                                       !- Standards Building Type
  living;                                 !- Standards Space Type

OS:Surface,
  {2db1aab7-4de3-43e6-95f1-c362da0afba8}, !- Handle
  Surface 7,                              !- Name
  Floor,                                  !- Surface Type
  ,                                       !- Construction Name
  {1b78bab2-63cb-4d59-b7d0-7dbb8a6e100b}, !- Space Name
  Surface,                                !- Outside Boundary Condition
  {4bc7b003-4ca1-4b8e-b777-8a700602916a}, !- Outside Boundary Condition Object
  NoSun,                                  !- Sun Exposure
  NoWind,                                 !- Wind Exposure
  ,                                       !- View Factor to Ground
  ,                                       !- Number of Vertices
  0, -12.9315688143396, 2.4384,           !- X,Y,Z Vertex 1 {m}
  0, 0, 2.4384,                           !- X,Y,Z Vertex 2 {m}
  6.46578440716979, 0, 2.4384,            !- X,Y,Z Vertex 3 {m}
  6.46578440716979, -12.9315688143396, 2.4384; !- X,Y,Z Vertex 4 {m}

OS:Surface,
  {64f2ee04-370a-4701-9074-229b05692313}, !- Handle
  Surface 8,                              !- Name
  RoofCeiling,                            !- Surface Type
  ,                                       !- Construction Name
  {1b78bab2-63cb-4d59-b7d0-7dbb8a6e100b}, !- Space Name
  Outdoors,                               !- Outside Boundary Condition
  ,                                       !- Outside Boundary Condition Object
  SunExposed,                             !- Sun Exposure
  WindExposed,                            !- Wind Exposure
  ,                                       !- View Factor to Ground
  ,                                       !- Number of Vertices
  0, -6.46578440716979, 5.6712922035849,  !- X,Y,Z Vertex 1 {m}
  6.46578440716979, -6.46578440716979, 5.6712922035849, !- X,Y,Z Vertex 2 {m}
  6.46578440716979, 0, 2.4384,            !- X,Y,Z Vertex 3 {m}
  0, 0, 2.4384;                           !- X,Y,Z Vertex 4 {m}

OS:Surface,
  {f580ac86-8667-44f9-9c13-34a2d153dbb3}, !- Handle
  Surface 9,                              !- Name
  RoofCeiling,                            !- Surface Type
  ,                                       !- Construction Name
  {1b78bab2-63cb-4d59-b7d0-7dbb8a6e100b}, !- Space Name
  Outdoors,                               !- Outside Boundary Condition
  ,                                       !- Outside Boundary Condition Object
  SunExposed,                             !- Sun Exposure
  WindExposed,                            !- Wind Exposure
  ,                                       !- View Factor to Ground
  ,                                       !- Number of Vertices
  6.46578440716979, -6.46578440716979, 5.6712922035849, !- X,Y,Z Vertex 1 {m}
  0, -6.46578440716979, 5.6712922035849,  !- X,Y,Z Vertex 2 {m}
  0, -12.9315688143396, 2.4384,           !- X,Y,Z Vertex 3 {m}
  6.46578440716979, -12.9315688143396, 2.4384; !- X,Y,Z Vertex 4 {m}

OS:Surface,
  {950c6362-7620-4ef9-8604-86aaecb4cabd}, !- Handle
  Surface 10,                             !- Name
  Wall,                                   !- Surface Type
  ,                                       !- Construction Name
  {1b78bab2-63cb-4d59-b7d0-7dbb8a6e100b}, !- Space Name
  Outdoors,                               !- Outside Boundary Condition
  ,                                       !- Outside Boundary Condition Object
  SunExposed,                             !- Sun Exposure
  WindExposed,                            !- Wind Exposure
  ,                                       !- View Factor to Ground
  ,                                       !- Number of Vertices
  0, -6.46578440716979, 5.6712922035849,  !- X,Y,Z Vertex 1 {m}
  0, 0, 2.4384,                           !- X,Y,Z Vertex 2 {m}
  0, -12.9315688143396, 2.4384;           !- X,Y,Z Vertex 3 {m}

OS:Surface,
  {1cea1062-b779-48ba-a12b-0ce385acc48a}, !- Handle
  Surface 11,                             !- Name
  Wall,                                   !- Surface Type
  ,                                       !- Construction Name
  {1b78bab2-63cb-4d59-b7d0-7dbb8a6e100b}, !- Space Name
  Adiabatic,                              !- Outside Boundary Condition
  ,                                       !- Outside Boundary Condition Object
  NoSun,                                  !- Sun Exposure
  NoWind,                                 !- Wind Exposure
  ,                                       !- View Factor to Ground
  ,                                       !- Number of Vertices
  6.46578440716979, -6.46578440716979, 5.6712922035849, !- X,Y,Z Vertex 1 {m}
  6.46578440716979, -12.9315688143396, 2.4384, !- X,Y,Z Vertex 2 {m}
  6.46578440716979, 0, 2.4384;            !- X,Y,Z Vertex 3 {m}

OS:Space,
  {1b78bab2-63cb-4d59-b7d0-7dbb8a6e100b}, !- Handle
  unfinished attic space,                 !- Name
  {c51b0a64-6f14-43da-8e87-d659c88ba10f}, !- Space Type Name
  ,                                       !- Default Construction Set Name
  ,                                       !- Default Schedule Set Name
  ,                                       !- Direction of Relative North {deg}
  ,                                       !- X Origin {m}
  ,                                       !- Y Origin {m}
  ,                                       !- Z Origin {m}
  ,                                       !- Building Story Name
  {d87251ac-8d93-497c-afb4-16578651779a}; !- Thermal Zone Name

OS:ThermalZone,
  {d87251ac-8d93-497c-afb4-16578651779a}, !- Handle
  unfinished attic zone,                  !- Name
  ,                                       !- Multiplier
  ,                                       !- Ceiling Height {m}
  ,                                       !- Volume {m3}
  ,                                       !- Floor Area {m2}
  ,                                       !- Zone Inside Convection Algorithm
  ,                                       !- Zone Outside Convection Algorithm
  ,                                       !- Zone Conditioning Equipment List Name
  {0bb63532-5b01-43d8-87d5-2f3af9ad752e}, !- Zone Air Inlet Port List
  {52921535-34c5-4209-8681-0e06190ae494}, !- Zone Air Exhaust Port List
  {c9976d0c-5aba-4481-b95e-219e78b42c60}, !- Zone Air Node Name
  {5ddbcb96-e2e0-4533-af57-5a859667f074}, !- Zone Return Air Port List
  ,                                       !- Primary Daylighting Control Name
  ,                                       !- Fraction of Zone Controlled by Primary Daylighting Control
  ,                                       !- Secondary Daylighting Control Name
  ,                                       !- Fraction of Zone Controlled by Secondary Daylighting Control
  ,                                       !- Illuminance Map Name
  ,                                       !- Group Rendering Name
  ,                                       !- Thermostat Name
  No;                                     !- Use Ideal Air Loads

OS:Node,
  {c895e9b4-bc0c-4954-8dc6-8cb2ceb96149}, !- Handle
  Node 2,                                 !- Name
  {c9976d0c-5aba-4481-b95e-219e78b42c60}, !- Inlet Port
  ;                                       !- Outlet Port

OS:Connection,
  {c9976d0c-5aba-4481-b95e-219e78b42c60}, !- Handle
  {17eed5f3-c216-478d-b4d6-ec4807f20ec4}, !- Name
  {d87251ac-8d93-497c-afb4-16578651779a}, !- Source Object
  11,                                     !- Outlet Port
  {c895e9b4-bc0c-4954-8dc6-8cb2ceb96149}, !- Target Object
  2;                                      !- Inlet Port

OS:PortList,
  {0bb63532-5b01-43d8-87d5-2f3af9ad752e}, !- Handle
  {5b60771f-cde9-4e58-871a-677fa1b274b5}, !- Name
  {d87251ac-8d93-497c-afb4-16578651779a}; !- HVAC Component

OS:PortList,
  {52921535-34c5-4209-8681-0e06190ae494}, !- Handle
  {7ae9228b-2ef2-4326-a277-65ff80b35e0f}, !- Name
  {d87251ac-8d93-497c-afb4-16578651779a}; !- HVAC Component

OS:PortList,
  {5ddbcb96-e2e0-4533-af57-5a859667f074}, !- Handle
  {9de47153-08d8-435b-b513-f5ef3445f0e9}, !- Name
  {d87251ac-8d93-497c-afb4-16578651779a}; !- HVAC Component

OS:Sizing:Zone,
  {38d17a7f-b96d-4906-97a1-177d9aa47c57}, !- Handle
  {d87251ac-8d93-497c-afb4-16578651779a}, !- Zone or ZoneList Name
  SupplyAirTemperature,                   !- Zone Cooling Design Supply Air Temperature Input Method
  14,                                     !- Zone Cooling Design Supply Air Temperature {C}
  11.11,                                  !- Zone Cooling Design Supply Air Temperature Difference {deltaC}
  SupplyAirTemperature,                   !- Zone Heating Design Supply Air Temperature Input Method
  40,                                     !- Zone Heating Design Supply Air Temperature {C}
  11.11,                                  !- Zone Heating Design Supply Air Temperature Difference {deltaC}
  0.0085,                                 !- Zone Cooling Design Supply Air Humidity Ratio {kg-H2O/kg-air}
  0.008,                                  !- Zone Heating Design Supply Air Humidity Ratio {kg-H2O/kg-air}
  ,                                       !- Zone Heating Sizing Factor
  ,                                       !- Zone Cooling Sizing Factor
  DesignDay,                              !- Cooling Design Air Flow Method
  ,                                       !- Cooling Design Air Flow Rate {m3/s}
  ,                                       !- Cooling Minimum Air Flow per Zone Floor Area {m3/s-m2}
  ,                                       !- Cooling Minimum Air Flow {m3/s}
  ,                                       !- Cooling Minimum Air Flow Fraction
  DesignDay,                              !- Heating Design Air Flow Method
  ,                                       !- Heating Design Air Flow Rate {m3/s}
  ,                                       !- Heating Maximum Air Flow per Zone Floor Area {m3/s-m2}
  ,                                       !- Heating Maximum Air Flow {m3/s}
  ,                                       !- Heating Maximum Air Flow Fraction
  ,                                       !- Design Zone Air Distribution Effectiveness in Cooling Mode
  ,                                       !- Design Zone Air Distribution Effectiveness in Heating Mode
  No,                                     !- Account for Dedicated Outdoor Air System
  NeutralSupplyAir,                       !- Dedicated Outdoor Air System Control Strategy
  autosize,                               !- Dedicated Outdoor Air Low Setpoint Temperature for Design {C}
  autosize;                               !- Dedicated Outdoor Air High Setpoint Temperature for Design {C}

OS:ZoneHVAC:EquipmentList,
  {8156a060-a101-41bb-a832-ac5aecadd76b}, !- Handle
  Zone HVAC Equipment List 2,             !- Name
  {d87251ac-8d93-497c-afb4-16578651779a}; !- Thermal Zone

OS:SpaceType,
  {c51b0a64-6f14-43da-8e87-d659c88ba10f}, !- Handle
  Space Type 2,                           !- Name
  ,                                       !- Default Construction Set Name
  ,                                       !- Default Schedule Set Name
  ,                                       !- Group Rendering Name
  ,                                       !- Design Specification Outdoor Air Object Name
  ,                                       !- Standards Template
  ,                                       !- Standards Building Type
  unfinished attic;                       !- Standards Space Type

OS:BuildingUnit,
  {172d7bb8-9dc2-4b0d-88e9-80aaedd48471}, !- Handle
  unit 1,                                 !- Name
  ,                                       !- Rendering Color
  Residential;                            !- Building Unit Type

OS:Building,
  {7894b3e8-e2cb-4e2e-bc12-9fe82db6121a}, !- Handle
  Building 1,                             !- Name
  ,                                       !- Building Sector Type
  0,                                      !- North Axis {deg}
  ,                                       !- Nominal Floor to Floor Height {m}
  ,                                       !- Space Type Name
  ,                                       !- Default Construction Set Name
  ,                                       !- Default Schedule Set Name
  1,                                      !- Standards Number of Stories
  1,                                      !- Standards Number of Above Ground Stories
  ,                                       !- Standards Template
  singlefamilyattached,                   !- Standards Building Type
  4;                                      !- Standards Number of Living Units

OS:AdditionalProperties,
  {eb8c4eb7-7c4d-45c0-85aa-28d451710e12}, !- Handle
  {7894b3e8-e2cb-4e2e-bc12-9fe82db6121a}, !- Object Name
  num_units,                              !- Feature Name 1
  Integer,                                !- Feature Data Type 1
  4,                                      !- Feature Value 1
  has_rear_units,                         !- Feature Name 2
  Boolean,                                !- Feature Data Type 2
  false,                                  !- Feature Value 2
  horz_location,                          !- Feature Name 3
  String,                                 !- Feature Data Type 3
  Left,                                   !- Feature Value 3
  num_floors,                             !- Feature Name 4
  Integer,                                !- Feature Data Type 4
  1;                                      !- Feature Value 4

OS:AdditionalProperties,
  {3814de46-bd91-49a2-b909-f6d4d18fe0ab}, !- Handle
  {172d7bb8-9dc2-4b0d-88e9-80aaedd48471}, !- Object Name
  NumberOfBedrooms,                       !- Feature Name 1
  Integer,                                !- Feature Data Type 1
  3,                                      !- Feature Value 1
  NumberOfBathrooms,                      !- Feature Name 2
  Double,                                 !- Feature Data Type 2
  2,                                      !- Feature Value 2
  NumberOfOccupants,                      !- Feature Name 3
  Double,                                 !- Feature Data Type 3
  3.3900000000000001;                     !- Feature Value 3

OS:Schedule:Day,
  {62b57448-ba0e-4bc7-8413-28302abfe125}, !- Handle
  Schedule Day 1,                         !- Name
  ,                                       !- Schedule Type Limits Name
  ,                                       !- Interpolate to Timestep
  24,                                     !- Hour 1
  0,                                      !- Minute 1
  0;                                      !- Value Until Time 1

OS:Schedule:Day,
  {ecb5aace-1d98-4dfa-9ad5-39438be5e613}, !- Handle
  Schedule Day 2,                         !- Name
  ,                                       !- Schedule Type Limits Name
  ,                                       !- Interpolate to Timestep