!- NOTE: Auto-generated from /test/osw_files/SFA_8units_2story_SL_UA.osw

OS:Version,
  {c5ca7d02-98d0-4e7f-8024-b8d7f266394a}, !- Handle
  2.9.1;                                  !- Version Identifier

OS:SimulationControl,
  {48f6f98d-5d36-405a-8389-5533c316678e}, !- Handle
  ,                                       !- Do Zone Sizing Calculation
  ,                                       !- Do System Sizing Calculation
  ,                                       !- Do Plant Sizing Calculation
  No;                                     !- Run Simulation for Sizing Periods

OS:Timestep,
  {42c8336f-29ac-4867-bb69-f6473464e63a}, !- Handle
  6;                                      !- Number of Timesteps per Hour

OS:ShadowCalculation,
  {cef52809-988e-4a4e-84a9-307dc7baf8da}, !- Handle
  20,                                     !- Calculation Frequency
  200;                                    !- Maximum Figures in Shadow Overlap Calculations

OS:SurfaceConvectionAlgorithm:Outside,
  {b27b620a-e367-4e1f-992e-1487f7aecc2e}, !- Handle
  DOE-2;                                  !- Algorithm

OS:SurfaceConvectionAlgorithm:Inside,
  {ec36f3ff-07d2-4042-a1ae-9e8af230b521}, !- Handle
  TARP;                                   !- Algorithm

OS:ZoneCapacitanceMultiplier:ResearchSpecial,
  {daf67cb1-15c8-40c2-abed-61d27a3fe8d0}, !- Handle
  ,                                       !- Temperature Capacity Multiplier
  15,                                     !- Humidity Capacity Multiplier
  ;                                       !- Carbon Dioxide Capacity Multiplier

OS:RunPeriod,
  {30b4809f-816f-48b5-8a12-cea562fe30c1}, !- Handle
  Run Period 1,                           !- Name
  1,                                      !- Begin Month
  1,                                      !- Begin Day of Month
  12,                                     !- End Month
  31,                                     !- End Day of Month
  ,                                       !- Use Weather File Holidays and Special Days
  ,                                       !- Use Weather File Daylight Saving Period
  ,                                       !- Apply Weekend Holiday Rule
  ,                                       !- Use Weather File Rain Indicators
  ,                                       !- Use Weather File Snow Indicators
  ;                                       !- Number of Times Runperiod to be Repeated

OS:YearDescription,
  {50e4c638-7ef1-4d7c-8e56-2e403aa51fb1}, !- Handle
  2007,                                   !- Calendar Year
  ,                                       !- Day of Week for Start Day
  ;                                       !- Is Leap Year

OS:Building,
  {be7ce2c8-e1c0-4f9c-a546-02fe4b05055f}, !- Handle
  Building 1,                             !- Name
  ,                                       !- Building Sector Type
  0,                                      !- North Axis {deg}
  ,                                       !- Nominal Floor to Floor Height {m}
  ,                                       !- Space Type Name
  ,                                       !- Default Construction Set Name
  ,                                       !- Default Schedule Set Name
  2,                                      !- Standards Number of Stories
  2,                                      !- Standards Number of Above Ground Stories
  ,                                       !- Standards Template
  singlefamilyattached,                   !- Standards Building Type
  8;                                      !- Standards Number of Living Units

OS:AdditionalProperties,
  {30e24deb-fcf2-4f53-84ce-a51c115f17bf}, !- Handle
  {be7ce2c8-e1c0-4f9c-a546-02fe4b05055f}, !- Object Name
  num_units,                              !- Feature Name 1
  Integer,                                !- Feature Data Type 1
  8,                                      !- Feature Value 1
  has_rear_units,                         !- Feature Name 2
  Boolean,                                !- Feature Data Type 2
  false,                                  !- Feature Value 2
  horz_location,                          !- Feature Name 3
  String,                                 !- Feature Data Type 3
  Left,                                   !- Feature Value 3
  num_floors,                             !- Feature Name 4
  Integer,                                !- Feature Data Type 4
  2;                                      !- Feature Value 4

OS:ThermalZone,
  {7dbde288-b249-43ff-9107-5c48ab8c19de}, !- Handle
  living zone,                            !- Name
  ,                                       !- Multiplier
  ,                                       !- Ceiling Height {m}
  ,                                       !- Volume {m3}
  ,                                       !- Floor Area {m2}
  ,                                       !- Zone Inside Convection Algorithm
  ,                                       !- Zone Outside Convection Algorithm
  ,                                       !- Zone Conditioning Equipment List Name
  {3791605a-0c36-4e29-851a-2c96022a01eb}, !- Zone Air Inlet Port List
  {a6e3d7bb-5ffe-45c0-a5b8-36f8fc610568}, !- Zone Air Exhaust Port List
  {b5c4e9db-3401-40a9-aba6-de7677039b48}, !- Zone Air Node Name
  {88126883-900c-487f-9add-ff6f5d1a87ca}, !- Zone Return Air Port List
  ,                                       !- Primary Daylighting Control Name
  ,                                       !- Fraction of Zone Controlled by Primary Daylighting Control
  ,                                       !- Secondary Daylighting Control Name
  ,                                       !- Fraction of Zone Controlled by Secondary Daylighting Control
  ,                                       !- Illuminance Map Name
  ,                                       !- Group Rendering Name
  ,                                       !- Thermostat Name
  No;                                     !- Use Ideal Air Loads

OS:Node,
  {9692ee7a-25c9-45f3-94a9-f57c0c1a5834}, !- Handle
  Node 1,                                 !- Name
  {b5c4e9db-3401-40a9-aba6-de7677039b48}, !- Inlet Port
  ;                                       !- Outlet Port

OS:Connection,
  {b5c4e9db-3401-40a9-aba6-de7677039b48}, !- Handle
  {4de53537-b1cb-4bd0-9c59-7e3157a478dd}, !- Name
  {7dbde288-b249-43ff-9107-5c48ab8c19de}, !- Source Object
  11,                                     !- Outlet Port
  {9692ee7a-25c9-45f3-94a9-f57c0c1a5834}, !- Target Object
  2;                                      !- Inlet Port

OS:PortList,
  {3791605a-0c36-4e29-851a-2c96022a01eb}, !- Handle
  {84243403-51f6-4a14-a5fb-f9e7190754e5}, !- Name
  {7dbde288-b249-43ff-9107-5c48ab8c19de}; !- HVAC Component

OS:PortList,
  {a6e3d7bb-5ffe-45c0-a5b8-36f8fc610568}, !- Handle
  {bd58364d-71cd-4839-825c-1ca8c6ca9a3a}, !- Name
  {7dbde288-b249-43ff-9107-5c48ab8c19de}; !- HVAC Component

OS:PortList,
  {88126883-900c-487f-9add-ff6f5d1a87ca}, !- Handle
  {fa08f3f0-04fe-4782-98e5-c68acfeb0d9b}, !- Name
  {7dbde288-b249-43ff-9107-5c48ab8c19de}; !- HVAC Component

OS:Sizing:Zone,
  {da4c086c-332d-423b-b6c8-bdc345a940c4}, !- Handle
  {7dbde288-b249-43ff-9107-5c48ab8c19de}, !- Zone or ZoneList Name
  SupplyAirTemperature,                   !- Zone Cooling Design Supply Air Temperature Input Method
  14,                                     !- Zone Cooling Design Supply Air Temperature {C}
  11.11,                                  !- Zone Cooling Design Supply Air Temperature Difference {deltaC}
  SupplyAirTemperature,                   !- Zone Heating Design Supply Air Temperature Input Method
  40,                                     !- Zone Heating Design Supply Air Temperature {C}
  11.11,                                  !- Zone Heating Design Supply Air Temperature Difference {deltaC}
  0.0085,                                 !- Zone Cooling Design Supply Air Humidity Ratio {kg-H2O/kg-air}
  0.008,                                  !- Zone Heating Design Supply Air Humidity Ratio {kg-H2O/kg-air}
  ,                                       !- Zone Heating Sizing Factor
  ,                                       !- Zone Cooling Sizing Factor
  DesignDay,                              !- Cooling Design Air Flow Method
  ,                                       !- Cooling Design Air Flow Rate {m3/s}
  ,                                       !- Cooling Minimum Air Flow per Zone Floor Area {m3/s-m2}
  ,                                       !- Cooling Minimum Air Flow {m3/s}
  ,                                       !- Cooling Minimum Air Flow Fraction
  DesignDay,                              !- Heating Design Air Flow Method
  ,                                       !- Heating Design Air Flow Rate {m3/s}
  ,                                       !- Heating Maximum Air Flow per Zone Floor Area {m3/s-m2}
  ,                                       !- Heating Maximum Air Flow {m3/s}
  ,                                       !- Heating Maximum Air Flow Fraction
  ,                                       !- Design Zone Air Distribution Effectiveness in Cooling Mode
  ,                                       !- Design Zone Air Distribution Effectiveness in Heating Mode
  No,                                     !- Account for Dedicated Outdoor Air System
  NeutralSupplyAir,                       !- Dedicated Outdoor Air System Control Strategy
  autosize,                               !- Dedicated Outdoor Air Low Setpoint Temperature for Design {C}
  autosize;                               !- Dedicated Outdoor Air High Setpoint Temperature for Design {C}

OS:ZoneHVAC:EquipmentList,
  {112586a9-feea-4fa3-a857-1878b0270c89}, !- Handle
  Zone HVAC Equipment List 1,             !- Name
  {7dbde288-b249-43ff-9107-5c48ab8c19de}; !- Thermal Zone

OS:Space,
  {c161e051-bf08-420c-b00c-5639ffc20018}, !- Handle
  living space,                           !- Name
  {7c916678-7ec5-4389-96bd-a12a65447c3d}, !- Space Type Name
  ,                                       !- Default Construction Set Name
  ,                                       !- Default Schedule Set Name
  ,                                       !- Direction of Relative North {deg}
  ,                                       !- X Origin {m}
  ,                                       !- Y Origin {m}
  ,                                       !- Z Origin {m}
  ,                                       !- Building Story Name
  {7dbde288-b249-43ff-9107-5c48ab8c19de}, !- Thermal Zone Name
  ,                                       !- Part of Total Floor Area
  ,                                       !- Design Specification Outdoor Air Object Name
  {2e66ec0c-e952-4b68-85de-2e283d7a45eb}; !- Building Unit Name

OS:Surface,
  {15be921c-8593-478c-9fbd-207f99cd6312}, !- Handle
  Surface 1,                              !- Name
  Floor,                                  !- Surface Type
  ,                                       !- Construction Name
  {c161e051-bf08-420c-b00c-5639ffc20018}, !- Space Name
  Foundation,                             !- Outside Boundary Condition
  ,                                       !- Outside Boundary Condition Object
  NoSun,                                  !- Sun Exposure
  NoWind,                                 !- Wind Exposure
  ,                                       !- View Factor to Ground
  ,                                       !- Number of Vertices
  0, -9.144, 0,                           !- X,Y,Z Vertex 1 {m}
  0, 0, 0,                                !- X,Y,Z Vertex 2 {m}
  4.572, 0, 0,                            !- X,Y,Z Vertex 3 {m}
  4.572, -9.144, 0;                       !- X,Y,Z Vertex 4 {m}

OS:Surface,
  {a69e3cf5-131f-49b6-8587-ef02c7cf8505}, !- Handle
  Surface 2,                              !- Name
  Wall,                                   !- Surface Type
  ,                                       !- Construction Name
  {c161e051-bf08-420c-b00c-5639ffc20018}, !- Space Name
  Outdoors,                               !- Outside Boundary Condition
  ,                                       !- Outside Boundary Condition Object
  SunExposed,                             !- Sun Exposure
  WindExposed,                            !- Wind Exposure
  ,                                       !- View Factor to Ground
  ,                                       !- Number of Vertices
  0, 0, 2.4384,                           !- X,Y,Z Vertex 1 {m}
  0, 0, 0,                                !- X,Y,Z Vertex 2 {m}
  0, -9.144, 0,                           !- X,Y,Z Vertex 3 {m}
  0, -9.144, 2.4384;                      !- X,Y,Z Vertex 4 {m}

OS:Surface,
  {e1d711a6-2190-4552-bcb5-e60d5625199d}, !- Handle
  Surface 3,                              !- Name
  Wall,                                   !- Surface Type
  ,                                       !- Construction Name
  {c161e051-bf08-420c-b00c-5639ffc20018}, !- Space Name
  Outdoors,                               !- Outside Boundary Condition
  ,                                       !- Outside Boundary Condition Object
  SunExposed,                             !- Sun Exposure
  WindExposed,                            !- Wind Exposure
  ,                                       !- View Factor to Ground
  ,                                       !- Number of Vertices
  4.572, 0, 2.4384,                       !- X,Y,Z Vertex 1 {m}
  4.572, 0, 0,                            !- X,Y,Z Vertex 2 {m}
  0, 0, 0,                                !- X,Y,Z Vertex 3 {m}
  0, 0, 2.4384;                           !- X,Y,Z Vertex 4 {m}

OS:Surface,
  {d6ae3ac3-2662-42a6-8e31-6364d23b7281}, !- Handle
  Surface 4,                              !- Name
  Wall,                                   !- Surface Type
  ,                                       !- Construction Name
  {c161e051-bf08-420c-b00c-5639ffc20018}, !- Space Name
  Adiabatic,                              !- Outside Boundary Condition
  ,                                       !- Outside Boundary Condition Object
  NoSun,                                  !- Sun Exposure
  NoWind,                                 !- Wind Exposure
  ,                                       !- View Factor to Ground
  ,                                       !- Number of Vertices
  4.572, -9.144, 2.4384,                  !- X,Y,Z Vertex 1 {m}
  4.572, -9.144, 0,                       !- X,Y,Z Vertex 2 {m}
  4.572, 0, 0,                            !- X,Y,Z Vertex 3 {m}
  4.572, 0, 2.4384;                       !- X,Y,Z Vertex 4 {m}

OS:Surface,
  {2986430f-4bb5-496d-9bae-96ff3c1c8d27}, !- Handle
  Surface 5,                              !- Name
  Wall,                                   !- Surface Type
  ,                                       !- Construction Name
  {c161e051-bf08-420c-b00c-5639ffc20018}, !- Space Name
  Outdoors,                               !- Outside Boundary Condition
  ,                                       !- Outside Boundary Condition Object
  SunExposed,                             !- Sun Exposure
  WindExposed,                            !- Wind Exposure
  ,                                       !- View Factor to Ground
  ,                                       !- Number of Vertices
  0, -9.144, 2.4384,                      !- X,Y,Z Vertex 1 {m}
  0, -9.144, 0,                           !- X,Y,Z Vertex 2 {m}
  4.572, -9.144, 0,                       !- X,Y,Z Vertex 3 {m}
  4.572, -9.144, 2.4384;                  !- X,Y,Z Vertex 4 {m}

OS:Surface,
  {e5fb9647-2dd4-44c6-8d01-3f2655613c59}, !- Handle
  Surface 6,                              !- Name
  RoofCeiling,                            !- Surface Type
  ,                                       !- Construction Name
  {c161e051-bf08-420c-b00c-5639ffc20018}, !- Space Name
  Surface,                                !- Outside Boundary Condition
  {cca30006-9321-4064-bcef-10e19ac9410b}, !- Outside Boundary Condition Object
  NoSun,                                  !- Sun Exposure
  NoWind,                                 !- Wind Exposure
  ,                                       !- View Factor to Ground
  ,                                       !- Number of Vertices
  4.572, -9.144, 2.4384,                  !- X,Y,Z Vertex 1 {m}
  4.572, 0, 2.4384,                       !- X,Y,Z Vertex 2 {m}
  0, 0, 2.4384,                           !- X,Y,Z Vertex 3 {m}
  0, -9.144, 2.4384;                      !- X,Y,Z Vertex 4 {m}

OS:SpaceType,
  {7c916678-7ec5-4389-96bd-a12a65447c3d}, !- Handle
  Space Type 1,                           !- Name
  ,                                       !- Default Construction Set Name
  ,                                       !- Default Schedule Set Name
  ,                                       !- Group Rendering Name
  ,                                       !- Design Specification Outdoor Air Object Name
  ,                                       !- Standards Template
  ,                                       !- Standards Building Type
  living;                                 !- Standards Space Type

OS:Space,
  {3759afa0-15a3-42f7-94f8-9ddf6d341c22}, !- Handle
  living space|story 2,                   !- Name
  {7c916678-7ec5-4389-96bd-a12a65447c3d}, !- Space Type Name
  ,                                       !- Default Construction Set Name
  ,                                       !- Default Schedule Set Name
  -0,                                     !- Direction of Relative North {deg}
  0,                                      !- X Origin {m}
  0,                                      !- Y Origin {m}
  2.4384,                                 !- Z Origin {m}
  ,                                       !- Building Story Name
  {7dbde288-b249-43ff-9107-5c48ab8c19de}, !- Thermal Zone Name
  ,                                       !- Part of Total Floor Area
  ,                                       !- Design Specification Outdoor Air Object Name
  {2e66ec0c-e952-4b68-85de-2e283d7a45eb}; !- Building Unit Name

OS:Surface,
  {458f0f15-a0f5-4551-9bd3-8c3209cd550f}, !- Handle
  Surface 7,                              !- Name
  Wall,                                   !- Surface Type
  ,                                       !- Construction Name
  {3759afa0-15a3-42f7-94f8-9ddf6d341c22}, !- Space Name
  Outdoors,                               !- Outside Boundary Condition
  ,                                       !- Outside Boundary Condition Object
  SunExposed,                             !- Sun Exposure
  WindExposed,                            !- Wind Exposure
  ,                                       !- View Factor to Ground
  ,                                       !- Number of Vertices
  4.572, 0, 2.4384,                       !- X,Y,Z Vertex 1 {m}
  4.572, 0, 0,                            !- X,Y,Z Vertex 2 {m}
  0, 0, 0,                                !- X,Y,Z Vertex 3 {m}
  0, 0, 2.4384;                           !- X,Y,Z Vertex 4 {m}

OS:Surface,
  {9327a9a6-9d0e-4b61-849e-d3dd474f089e}, !- Handle
  Surface 8,                              !- Name
  Wall,                                   !- Surface Type
  ,                                       !- Construction Name
  {3759afa0-15a3-42f7-94f8-9ddf6d341c22}, !- Space Name
  Outdoors,                               !- Outside Boundary Condition
  ,                                       !- Outside Boundary Condition Object
  SunExposed,                             !- Sun Exposure
  WindExposed,                            !- Wind Exposure
  ,                                       !- View Factor to Ground
  ,                                       !- Number of Vertices
  0, -9.144, 2.4384,                      !- X,Y,Z Vertex 1 {m}
  0, -9.144, 0,                           !- X,Y,Z Vertex 2 {m}
  4.572, -9.144, 0,                       !- X,Y,Z Vertex 3 {m}
  4.572, -9.144, 2.4384;                  !- X,Y,Z Vertex 4 {m}

OS:Surface,
  {2a5fc179-529c-4ede-b895-404a18acab5e}, !- Handle
  Surface 9,                              !- Name
  RoofCeiling,                            !- Surface Type
  ,                                       !- Construction Name
  {3759afa0-15a3-42f7-94f8-9ddf6d341c22}, !- Space Name
  Surface,                                !- Outside Boundary Condition
  {c6a9ffa5-5525-49da-9047-25c16b31892d}, !- Outside Boundary Condition Object
  NoSun,                                  !- Sun Exposure
  NoWind,                                 !- Wind Exposure
  ,                                       !- View Factor to Ground
  ,                                       !- Number of Vertices
  4.572, -9.144, 2.4384,                  !- X,Y,Z Vertex 1 {m}
  4.572, 0, 2.4384,                       !- X,Y,Z Vertex 2 {m}
  0, 0, 2.4384,                           !- X,Y,Z Vertex 3 {m}
  0, -9.144, 2.4384;                      !- X,Y,Z Vertex 4 {m}

OS:Surface,
  {419ed959-c11e-466f-934a-b5928a42249c}, !- Handle
  Surface 10,                             !- Name
  Wall,                                   !- Surface Type
  ,                                       !- Construction Name
  {3759afa0-15a3-42f7-94f8-9ddf6d341c22}, !- Space Name
  Outdoors,                               !- Outside Boundary Condition
  ,                                       !- Outside Boundary Condition Object
  SunExposed,                             !- Sun Exposure
  WindExposed,                            !- Wind Exposure
  ,                                       !- View Factor to Ground
  ,                                       !- Number of Vertices
  0, 0, 2.4384,                           !- X,Y,Z Vertex 1 {m}
  0, 0, 0,                                !- X,Y,Z Vertex 2 {m}
  0, -9.144, 0,                           !- X,Y,Z Vertex 3 {m}
  0, -9.144, 2.4384;                      !- X,Y,Z Vertex 4 {m}

OS:Surface,
  {cca30006-9321-4064-bcef-10e19ac9410b}, !- Handle
  Surface 11,                             !- Name
  Floor,                                  !- Surface Type
  ,                                       !- Construction Name
  {3759afa0-15a3-42f7-94f8-9ddf6d341c22}, !- Space Name
  Surface,                                !- Outside Boundary Condition
  {e5fb9647-2dd4-44c6-8d01-3f2655613c59}, !- Outside Boundary Condition Object
  NoSun,                                  !- Sun Exposure
  NoWind,                                 !- Wind Exposure
  ,                                       !- View Factor to Ground
  ,                                       !- Number of Vertices
  0, -9.144, 0,                           !- X,Y,Z Vertex 1 {m}
  0, 0, 0,                                !- X,Y,Z Vertex 2 {m}
  4.572, 0, 0,                            !- X,Y,Z Vertex 3 {m}
  4.572, -9.144, 0;                       !- X,Y,Z Vertex 4 {m}

OS:Surface,
  {a3149233-52df-4db0-a8f7-b438ede5e060}, !- Handle
  Surface 12,                             !- Name
  Wall,                                   !- Surface Type
  ,                                       !- Construction Name
  {3759afa0-15a3-42f7-94f8-9ddf6d341c22}, !- Space Name
  Adiabatic,                              !- Outside Boundary Condition
  ,                                       !- Outside Boundary Condition Object
  NoSun,                                  !- Sun Exposure
  NoWind,                                 !- Wind Exposure
  ,                                       !- View Factor to Ground
  ,                                       !- Number of Vertices
  4.572, -9.144, 2.4384,                  !- X,Y,Z Vertex 1 {m}
  4.572, -9.144, 0,                       !- X,Y,Z Vertex 2 {m}
  4.572, 0, 0,                            !- X,Y,Z Vertex 3 {m}
  4.572, 0, 2.4384;                       !- X,Y,Z Vertex 4 {m}

OS:Surface,
  {c6a9ffa5-5525-49da-9047-25c16b31892d}, !- Handle
  Surface 13,                             !- Name
  Floor,                                  !- Surface Type
  ,                                       !- Construction Name
  {cc494aac-4b56-477e-85c4-3dd9aee39228}, !- Space Name
  Surface,                                !- Outside Boundary Condition
  {2a5fc179-529c-4ede-b895-404a18acab5e}, !- Outside Boundary Condition Object
  NoSun,                                  !- Sun Exposure
  NoWind,                                 !- Wind Exposure
  ,                                       !- View Factor to Ground
  ,                                       !- Number of Vertices
  0, -9.144, 4.8768,                      !- X,Y,Z Vertex 1 {m}
  0, 0, 4.8768,                           !- X,Y,Z Vertex 2 {m}
  4.572, 0, 4.8768,                       !- X,Y,Z Vertex 3 {m}
  4.572, -9.144, 4.8768;                  !- X,Y,Z Vertex 4 {m}

OS:Surface,
  {1131aacc-946c-4d53-b60d-1520d386685d}, !- Handle
  Surface 14,                             !- Name
  RoofCeiling,                            !- Surface Type
  ,                                       !- Construction Name
  {cc494aac-4b56-477e-85c4-3dd9aee39228}, !- Space Name
  Outdoors,                               !- Outside Boundary Condition
  ,                                       !- Outside Boundary Condition Object
  SunExposed,                             !- Sun Exposure
  WindExposed,                            !- Wind Exposure
  ,                                       !- View Factor to Ground
  ,                                       !- Number of Vertices
  0, -4.572, 7.1628,                      !- X,Y,Z Vertex 1 {m}
  4.572, -4.572, 7.1628,                  !- X,Y,Z Vertex 2 {m}
  4.572, 0, 4.8768,                       !- X,Y,Z Vertex 3 {m}
  0, 0, 4.8768;                           !- X,Y,Z Vertex 4 {m}

OS:Surface,
  {6b348f5b-c2d1-45f0-a4be-ae95d471579e}, !- Handle
  Surface 15,                             !- Name
  RoofCeiling,                            !- Surface Type
  ,                                       !- Construction Name
  {cc494aac-4b56-477e-85c4-3dd9aee39228}, !- Space Name
  Outdoors,                               !- Outside Boundary Condition
  ,                                       !- Outside Boundary Condition Object
  SunExposed,                             !- Sun Exposure
  WindExposed,                            !- Wind Exposure
  ,                                       !- View Factor to Ground
  ,                                       !- Number of Vertices
  4.572, -4.572, 7.1628,                  !- X,Y,Z Vertex 1 {m}
  0, -4.572, 7.1628,                      !- X,Y,Z Vertex 2 {m}
  0, -9.144, 4.8768,                      !- X,Y,Z Vertex 3 {m}
  4.572, -9.144, 4.8768;                  !- X,Y,Z Vertex 4 {m}

OS:Surface,
  {92fcc5c7-6cbb-426d-ac5b-ca763c6bc8e6}, !- Handle
  Surface 16,                             !- Name
  Wall,                                   !- Surface Type
  ,                                       !- Construction Name
  {cc494aac-4b56-477e-85c4-3dd9aee39228}, !- Space Name
  Outdoors,                               !- Outside Boundary Condition
  ,                                       !- Outside Boundary Condition Object
  SunExposed,                             !- Sun Exposure
  WindExposed,                            !- Wind Exposure
  ,                                       !- View Factor to Ground
  ,                                       !- Number of Vertices
  0, -4.572, 7.1628,                      !- X,Y,Z Vertex 1 {m}
  0, 0, 4.8768,                           !- X,Y,Z Vertex 2 {m}
  0, -9.144, 4.8768;                      !- X,Y,Z Vertex 3 {m}

OS:Surface,
  {45615afd-4bcf-4724-a9d8-032b97d23c9c}, !- Handle
  Surface 17,                             !- Name
  Wall,                                   !- Surface Type
  ,                                       !- Construction Name
  {cc494aac-4b56-477e-85c4-3dd9aee39228}, !- Space Name
  Adiabatic,                              !- Outside Boundary Condition
  ,                                       !- Outside Boundary Condition Object
  NoSun,                                  !- Sun Exposure
  NoWind,                                 !- Wind Exposure
  ,                                       !- View Factor to Ground
  ,                                       !- Number of Vertices
  4.572, -4.572, 7.1628,                  !- X,Y,Z Vertex 1 {m}
  4.572, -9.144, 4.8768,                  !- X,Y,Z Vertex 2 {m}
  4.572, 0, 4.8768;                       !- X,Y,Z Vertex 3 {m}

OS:Space,
  {cc494aac-4b56-477e-85c4-3dd9aee39228}, !- Handle
  unfinished attic space,                 !- Name
  {36782b61-c147-4380-ae78-1a8255b53f67}, !- Space Type Name
  ,                                       !- Default Construction Set Name
  ,                                       !- Default Schedule Set Name
  ,                                       !- Direction of Relative North {deg}
  ,                                       !- X Origin {m}
  ,                                       !- Y Origin {m}
  ,                                       !- Z Origin {m}
  ,                                       !- Building Story Name
  {2c0d4f9b-889d-44ea-9a20-f9a131fa9f87}; !- Thermal Zone Name

OS:ThermalZone,
  {2c0d4f9b-889d-44ea-9a20-f9a131fa9f87}, !- Handle
  unfinished attic zone,                  !- Name
  ,                                       !- Multiplier
  ,                                       !- Ceiling Height {m}
  ,                                       !- Volume {m3}
  ,                                       !- Floor Area {m2}
  ,                                       !- Zone Inside Convection Algorithm
  ,                                       !- Zone Outside Convection Algorithm
  ,                                       !- Zone Conditioning Equipment List Name
  {65c1055f-75c0-4ff2-8093-d8240b8fc153}, !- Zone Air Inlet Port List
  {2a1c2567-aa19-4bf2-92d2-55780e9e79a5}, !- Zone Air Exhaust Port List
  {e98e98ec-1325-4342-a129-9007bfaa0449}, !- Zone Air Node Name
  {528ee262-6c4e-481b-a84c-957f69caf619}, !- Zone Return Air Port List
  ,                                       !- Primary Daylighting Control Name
  ,                                       !- Fraction of Zone Controlled by Primary Daylighting Control