!- NOTE: Auto-generated from /test/osw_files/SFA_4units_1story_SL_UA_3Beds_2Baths_Denver_Central_System_Fan_Coil_NoSetpoints.osw

OS:Version,
  {a228f1e5-e0b0-4ac3-aa1d-748ff2c2e815}, !- Handle
  2.9.1;                                  !- Version Identifier

OS:SimulationControl,
  {d1b0a68f-6072-48bf-9c8e-1ca7104a852c}, !- Handle
  ,                                       !- Do Zone Sizing Calculation
  ,                                       !- Do System Sizing Calculation
  ,                                       !- Do Plant Sizing Calculation
  Yes;                                    !- Run Simulation for Sizing Periods

OS:Timestep,
  {c3dc6a9a-adeb-441b-902f-e664fa761f5c}, !- Handle
  6;                                      !- Number of Timesteps per Hour

OS:ShadowCalculation,
  {b65c0d54-e87a-44a8-bbe6-630775079a19}, !- Handle
  20,                                     !- Calculation Frequency
  200;                                    !- Maximum Figures in Shadow Overlap Calculations

OS:SurfaceConvectionAlgorithm:Outside,
  {f4c42aea-fac2-48bc-b55b-a452972e0ae5}, !- Handle
  DOE-2;                                  !- Algorithm

OS:SurfaceConvectionAlgorithm:Inside,
  {3f1ea07c-cfbe-43bd-a8b9-bcf64c7ee9bb}, !- Handle
  TARP;                                   !- Algorithm

OS:ZoneCapacitanceMultiplier:ResearchSpecial,
  {efd54353-1bae-444f-8932-f88b80831b25}, !- Handle
  ,                                       !- Temperature Capacity Multiplier
  15,                                     !- Humidity Capacity Multiplier
  ;                                       !- Carbon Dioxide Capacity Multiplier

OS:RunPeriod,
  {890b97a0-6ea1-4abe-a948-21d2d83cbd18}, !- Handle
  Run Period 1,                           !- Name
  1,                                      !- Begin Month
  1,                                      !- Begin Day of Month
  12,                                     !- End Month
  31,                                     !- End Day of Month
  ,                                       !- Use Weather File Holidays and Special Days
  ,                                       !- Use Weather File Daylight Saving Period
  ,                                       !- Apply Weekend Holiday Rule
  ,                                       !- Use Weather File Rain Indicators
  ,                                       !- Use Weather File Snow Indicators
  ;                                       !- Number of Times Runperiod to be Repeated

OS:YearDescription,
  {9588109a-f4a4-4c38-88e0-806e1900e83e}, !- Handle
  2007,                                   !- Calendar Year
  ,                                       !- Day of Week for Start Day
  ;                                       !- Is Leap Year

OS:ThermalZone,
  {b9120da7-6811-4f5c-905f-1a2ca1e78730}, !- Handle
  living zone,                            !- Name
  ,                                       !- Multiplier
  ,                                       !- Ceiling Height {m}
  ,                                       !- Volume {m3}
  ,                                       !- Floor Area {m2}
  ,                                       !- Zone Inside Convection Algorithm
  ,                                       !- Zone Outside Convection Algorithm
  ,                                       !- Zone Conditioning Equipment List Name
  {f9b9956a-00c2-4b75-8397-2bf35e96c813}, !- Zone Air Inlet Port List
  {90eac619-9ff5-4b46-aa49-0b99927aa14a}, !- Zone Air Exhaust Port List
  {aac4fcfc-9d44-4307-ae4d-6cb9d68a346c}, !- Zone Air Node Name
  {069268c8-3a9e-41ab-b2f7-0e240be2794d}, !- Zone Return Air Port List
  ,                                       !- Primary Daylighting Control Name
  ,                                       !- Fraction of Zone Controlled by Primary Daylighting Control
  ,                                       !- Secondary Daylighting Control Name
  ,                                       !- Fraction of Zone Controlled by Secondary Daylighting Control
  ,                                       !- Illuminance Map Name
  ,                                       !- Group Rendering Name
  ,                                       !- Thermostat Name
  No;                                     !- Use Ideal Air Loads

OS:Node,
  {b94ca30b-b2ce-4285-a24f-2d2025d8dffc}, !- Handle
  Node 1,                                 !- Name
  {aac4fcfc-9d44-4307-ae4d-6cb9d68a346c}, !- Inlet Port
  ;                                       !- Outlet Port

OS:Connection,
  {aac4fcfc-9d44-4307-ae4d-6cb9d68a346c}, !- Handle
  {58f5b6ab-3077-4cb5-9243-9134b84026fe}, !- Name
  {b9120da7-6811-4f5c-905f-1a2ca1e78730}, !- Source Object
  11,                                     !- Outlet Port
  {b94ca30b-b2ce-4285-a24f-2d2025d8dffc}, !- Target Object
  2;                                      !- Inlet Port

OS:PortList,
  {f9b9956a-00c2-4b75-8397-2bf35e96c813}, !- Handle
  {3c95c86d-c8d3-4b6f-a2fb-bc33c0bf9bd3}, !- Name
  {b9120da7-6811-4f5c-905f-1a2ca1e78730}, !- HVAC Component
  {e97ae7e7-6db1-44b2-98b0-e5ff043422bf}; !- Port 1

OS:PortList,
  {90eac619-9ff5-4b46-aa49-0b99927aa14a}, !- Handle
  {14aa8b79-5872-4d27-b368-d6e7e58b0deb}, !- Name
  {b9120da7-6811-4f5c-905f-1a2ca1e78730}, !- HVAC Component
  {2d84dacc-da55-4b90-9b67-131c534d447d}; !- Port 1

OS:PortList,
  {069268c8-3a9e-41ab-b2f7-0e240be2794d}, !- Handle
  {70ed2599-d363-4969-9242-942e98965e07}, !- Name
  {b9120da7-6811-4f5c-905f-1a2ca1e78730}; !- HVAC Component

OS:Sizing:Zone,
  {5deed12d-6dee-43bd-9ac2-cc6a9eb386c1}, !- Handle
  {b9120da7-6811-4f5c-905f-1a2ca1e78730}, !- Zone or ZoneList Name
  SupplyAirTemperature,                   !- Zone Cooling Design Supply Air Temperature Input Method
  12.7777777777778,                       !- Zone Cooling Design Supply Air Temperature {C}
  11.11,                                  !- Zone Cooling Design Supply Air Temperature Difference {deltaC}
  SupplyAirTemperature,                   !- Zone Heating Design Supply Air Temperature Input Method
  40.0000000000001,                       !- Zone Heating Design Supply Air Temperature {C}
  11.11,                                  !- Zone Heating Design Supply Air Temperature Difference {deltaC}
  0.0085,                                 !- Zone Cooling Design Supply Air Humidity Ratio {kg-H2O/kg-air}
  0.008,                                  !- Zone Heating Design Supply Air Humidity Ratio {kg-H2O/kg-air}
  ,                                       !- Zone Heating Sizing Factor
  ,                                       !- Zone Cooling Sizing Factor
  DesignDay,                              !- Cooling Design Air Flow Method
  ,                                       !- Cooling Design Air Flow Rate {m3/s}
  ,                                       !- Cooling Minimum Air Flow per Zone Floor Area {m3/s-m2}
  ,                                       !- Cooling Minimum Air Flow {m3/s}
  ,                                       !- Cooling Minimum Air Flow Fraction
  DesignDay,                              !- Heating Design Air Flow Method
  ,                                       !- Heating Design Air Flow Rate {m3/s}
  ,                                       !- Heating Maximum Air Flow per Zone Floor Area {m3/s-m2}
  ,                                       !- Heating Maximum Air Flow {m3/s}
  ,                                       !- Heating Maximum Air Flow Fraction
  ,                                       !- Design Zone Air Distribution Effectiveness in Cooling Mode
  ,                                       !- Design Zone Air Distribution Effectiveness in Heating Mode
  No,                                     !- Account for Dedicated Outdoor Air System
  NeutralSupplyAir,                       !- Dedicated Outdoor Air System Control Strategy
  autosize,                               !- Dedicated Outdoor Air Low Setpoint Temperature for Design {C}
  autosize;                               !- Dedicated Outdoor Air High Setpoint Temperature for Design {C}

OS:ZoneHVAC:EquipmentList,
  {58716388-35bb-43bf-8853-626efbc5240a}, !- Handle
  Zone HVAC Equipment List 1,             !- Name
  {b9120da7-6811-4f5c-905f-1a2ca1e78730}, !- Thermal Zone
  ,                                       !- Load Distribution Scheme
  {38f3e6f7-d3e2-4c2b-9073-165a69a01727}, !- Zone Equipment 1
  1,                                      !- Zone Equipment Cooling Sequence 1
  1,                                      !- Zone Equipment Heating or No-Load Sequence 1
  ,                                       !- Zone Equipment Sequential Cooling Fraction Schedule Name 1
  ;                                       !- Zone Equipment Sequential Heating Fraction Schedule Name 1

OS:Space,
  {b666d991-c961-4bd2-861a-dd9a8800d0fa}, !- Handle
  living space,                           !- Name
  {e553e211-ba4c-469a-b999-a52175d645bf}, !- Space Type Name
  ,                                       !- Default Construction Set Name
  ,                                       !- Default Schedule Set Name
  ,                                       !- Direction of Relative North {deg}
  ,                                       !- X Origin {m}
  ,                                       !- Y Origin {m}
  ,                                       !- Z Origin {m}
  ,                                       !- Building Story Name
  {b9120da7-6811-4f5c-905f-1a2ca1e78730}, !- Thermal Zone Name
  ,                                       !- Part of Total Floor Area
  ,                                       !- Design Specification Outdoor Air Object Name
  {244081ce-1243-4a3e-a0fe-15e3e590ddaa}; !- Building Unit Name

OS:Surface,
  {11bcd81b-b299-4a3d-8c63-4d3458d67bff}, !- Handle
  Surface 1,                              !- Name
  Floor,                                  !- Surface Type
  ,                                       !- Construction Name
  {b666d991-c961-4bd2-861a-dd9a8800d0fa}, !- Space Name
  Foundation,                             !- Outside Boundary Condition
  ,                                       !- Outside Boundary Condition Object
  NoSun,                                  !- Sun Exposure
  NoWind,                                 !- Wind Exposure
  ,                                       !- View Factor to Ground
  ,                                       !- Number of Vertices
  0, -12.9315688143396, 0,                !- X,Y,Z Vertex 1 {m}
  0, 0, 0,                                !- X,Y,Z Vertex 2 {m}
  6.46578440716979, 0, 0,                 !- X,Y,Z Vertex 3 {m}
  6.46578440716979, -12.9315688143396, 0; !- X,Y,Z Vertex 4 {m}

OS:Surface,
  {6d657a72-8e27-48a4-b831-f0fe294a2e80}, !- Handle
  Surface 2,                              !- Name
  Wall,                                   !- Surface Type
  ,                                       !- Construction Name
  {b666d991-c961-4bd2-861a-dd9a8800d0fa}, !- Space Name
  Outdoors,                               !- Outside Boundary Condition
  ,                                       !- Outside Boundary Condition Object
  SunExposed,                             !- Sun Exposure
  WindExposed,                            !- Wind Exposure
  ,                                       !- View Factor to Ground
  ,                                       !- Number of Vertices
  0, 0, 2.4384,                           !- X,Y,Z Vertex 1 {m}
  0, 0, 0,                                !- X,Y,Z Vertex 2 {m}
  0, -12.9315688143396, 0,                !- X,Y,Z Vertex 3 {m}
  0, -12.9315688143396, 2.4384;           !- X,Y,Z Vertex 4 {m}

OS:Surface,
  {1c553c96-3930-4990-ac4f-e086799ee8d6}, !- Handle
  Surface 3,                              !- Name
  Wall,                                   !- Surface Type
  ,                                       !- Construction Name
  {b666d991-c961-4bd2-861a-dd9a8800d0fa}, !- Space Name
  Outdoors,                               !- Outside Boundary Condition
  ,                                       !- Outside Boundary Condition Object
  SunExposed,                             !- Sun Exposure
  WindExposed,                            !- Wind Exposure
  ,                                       !- View Factor to Ground
  ,                                       !- Number of Vertices
  6.46578440716979, 0, 2.4384,            !- X,Y,Z Vertex 1 {m}
  6.46578440716979, 0, 0,                 !- X,Y,Z Vertex 2 {m}
  0, 0, 0,                                !- X,Y,Z Vertex 3 {m}
  0, 0, 2.4384;                           !- X,Y,Z Vertex 4 {m}

OS:Surface,
  {d651a891-9663-44c2-b527-865b074070b7}, !- Handle
  Surface 4,                              !- Name
  Wall,                                   !- Surface Type
  ,                                       !- Construction Name
  {b666d991-c961-4bd2-861a-dd9a8800d0fa}, !- Space Name
  Surface,                                !- Outside Boundary Condition
  {e4466615-2111-4ab5-9a8e-c47abfea84ce}, !- Outside Boundary Condition Object
  NoSun,                                  !- Sun Exposure
  NoWind,                                 !- Wind Exposure
  ,                                       !- View Factor to Ground
  ,                                       !- Number of Vertices
  6.46578440716979, -12.9315688143396, 2.4384, !- X,Y,Z Vertex 1 {m}
  6.46578440716979, -12.9315688143396, 0, !- X,Y,Z Vertex 2 {m}
  6.46578440716979, 0, 0,                 !- X,Y,Z Vertex 3 {m}
  6.46578440716979, 0, 2.4384;            !- X,Y,Z Vertex 4 {m}

OS:Surface,
  {5d71001b-4a45-4391-b583-9e92e603a7cd}, !- Handle
  Surface 5,                              !- Name
  Wall,                                   !- Surface Type
  ,                                       !- Construction Name
  {b666d991-c961-4bd2-861a-dd9a8800d0fa}, !- Space Name
  Outdoors,                               !- Outside Boundary Condition
  ,                                       !- Outside Boundary Condition Object
  SunExposed,                             !- Sun Exposure
  WindExposed,                            !- Wind Exposure
  ,                                       !- View Factor to Ground
  ,                                       !- Number of Vertices
  0, -12.9315688143396, 2.4384,           !- X,Y,Z Vertex 1 {m}
  0, -12.9315688143396, 0,                !- X,Y,Z Vertex 2 {m}
  6.46578440716979, -12.9315688143396, 0, !- X,Y,Z Vertex 3 {m}
  6.46578440716979, -12.9315688143396, 2.4384; !- X,Y,Z Vertex 4 {m}

OS:Surface,
  {dca3c50b-c06b-4200-8c85-e92698adeae3}, !- Handle
  Surface 6,                              !- Name
  RoofCeiling,                            !- Surface Type
  ,                                       !- Construction Name
  {b666d991-c961-4bd2-861a-dd9a8800d0fa}, !- Space Name
  Surface,                                !- Outside Boundary Condition
  {74dcb31e-dd69-4e5d-ada3-f9f6ffd1483d}, !- Outside Boundary Condition Object
  NoSun,                                  !- Sun Exposure
  NoWind,                                 !- Wind Exposure
  ,                                       !- View Factor to Ground
  ,                                       !- Number of Vertices
  6.46578440716979, -12.9315688143396, 2.4384, !- X,Y,Z Vertex 1 {m}
  6.46578440716979, 0, 2.4384,            !- X,Y,Z Vertex 2 {m}
  0, 0, 2.4384,                           !- X,Y,Z Vertex 3 {m}
  0, -12.9315688143396, 2.4384;           !- X,Y,Z Vertex 4 {m}

OS:SpaceType,
  {e553e211-ba4c-469a-b999-a52175d645bf}, !- Handle
  Space Type 1,                           !- Name
  ,                                       !- Default Construction Set Name
  ,                                       !- Default Schedule Set Name
  ,                                       !- Group Rendering Name
  ,                                       !- Design Specification Outdoor Air Object Name
  ,                                       !- Standards Template
  ,                                       !- Standards Building Type
  living;                                 !- Standards Space Type

OS:ThermalZone,
  {8ee0e782-cae1-4014-942c-dd2f79dca9ac}, !- Handle
  living zone|unit 2,                     !- Name
  ,                                       !- Multiplier
  ,                                       !- Ceiling Height {m}
  ,                                       !- Volume {m3}
  ,                                       !- Floor Area {m2}
  ,                                       !- Zone Inside Convection Algorithm
  ,                                       !- Zone Outside Convection Algorithm
  ,                                       !- Zone Conditioning Equipment List Name
  {2542482f-e21a-4f3b-ae9f-bfd916c7b0cb}, !- Zone Air Inlet Port List
  {b3d6768d-8183-40d6-988d-bbf936e2c6d3}, !- Zone Air Exhaust Port List
  {66ffe715-004d-4850-800f-4b5936cd66c9}, !- Zone Air Node Name
  {731d8551-ec26-457a-bf9b-f0e54067329b}, !- Zone Return Air Port List
  ,                                       !- Primary Daylighting Control Name
  ,                                       !- Fraction of Zone Controlled by Primary Daylighting Control
  ,                                       !- Secondary Daylighting Control Name
  ,                                       !- Fraction of Zone Controlled by Secondary Daylighting Control
  ,                                       !- Illuminance Map Name
  ,                                       !- Group Rendering Name
  ,                                       !- Thermostat Name
  No;                                     !- Use Ideal Air Loads

OS:Node,
  {800d2d7f-4a70-491e-8dd7-bc3400bb0ad6}, !- Handle
  Node 2,                                 !- Name
  {66ffe715-004d-4850-800f-4b5936cd66c9}, !- Inlet Port
  ;                                       !- Outlet Port

OS:Connection,
  {66ffe715-004d-4850-800f-4b5936cd66c9}, !- Handle
  {6ed2580a-16e2-41d8-85d6-e15489489961}, !- Name
  {8ee0e782-cae1-4014-942c-dd2f79dca9ac}, !- Source Object
  11,                                     !- Outlet Port
  {800d2d7f-4a70-491e-8dd7-bc3400bb0ad6}, !- Target Object
  2;                                      !- Inlet Port

OS:PortList,
  {2542482f-e21a-4f3b-ae9f-bfd916c7b0cb}, !- Handle
  {259862aa-caab-4497-8a84-ee03855365e3}, !- Name
  {8ee0e782-cae1-4014-942c-dd2f79dca9ac}, !- HVAC Component
  {efc0adaa-f214-4a13-823f-df31059bb7c6}; !- Port 1

OS:PortList,
  {b3d6768d-8183-40d6-988d-bbf936e2c6d3}, !- Handle
  {a49d2c64-a2b9-4a61-932c-04b2da661198}, !- Name
  {8ee0e782-cae1-4014-942c-dd2f79dca9ac}, !- HVAC Component
  {3017c3c2-0afe-4bc9-a589-8338a43d8e14}; !- Port 1

OS:PortList,
  {731d8551-ec26-457a-bf9b-f0e54067329b}, !- Handle
  {4f4f98c0-9e81-43c6-a6ed-cd2047add022}, !- Name
  {8ee0e782-cae1-4014-942c-dd2f79dca9ac}; !- HVAC Component

OS:Sizing:Zone,
  {769ebf11-6044-4aba-8b00-04a71515ac0d}, !- Handle
  {8ee0e782-cae1-4014-942c-dd2f79dca9ac}, !- Zone or ZoneList Name
  SupplyAirTemperature,                   !- Zone Cooling Design Supply Air Temperature Input Method
  12.7777777777778,                       !- Zone Cooling Design Supply Air Temperature {C}
  11.11,                                  !- Zone Cooling Design Supply Air Temperature Difference {deltaC}
  SupplyAirTemperature,                   !- Zone Heating Design Supply Air Temperature Input Method
  40.0000000000001,                       !- Zone Heating Design Supply Air Temperature {C}
  11.11,                                  !- Zone Heating Design Supply Air Temperature Difference {deltaC}
  0.0085,                                 !- Zone Cooling Design Supply Air Humidity Ratio {kg-H2O/kg-air}
  0.008,                                  !- Zone Heating Design Supply Air Humidity Ratio {kg-H2O/kg-air}
  ,                                       !- Zone Heating Sizing Factor
  ,                                       !- Zone Cooling Sizing Factor
  DesignDay,                              !- Cooling Design Air Flow Method
  ,                                       !- Cooling Design Air Flow Rate {m3/s}
  ,                                       !- Cooling Minimum Air Flow per Zone Floor Area {m3/s-m2}
  ,                                       !- Cooling Minimum Air Flow {m3/s}
  ,                                       !- Cooling Minimum Air Flow Fraction
  DesignDay,                              !- Heating Design Air Flow Method
  ,                                       !- Heating Design Air Flow Rate {m3/s}
  ,                                       !- Heating Maximum Air Flow per Zone Floor Area {m3/s-m2}
  ,                                       !- Heating Maximum Air Flow {m3/s}
  ,                                       !- Heating Maximum Air Flow Fraction
  ,                                       !- Design Zone Air Distribution Effectiveness in Cooling Mode
  ,                                       !- Design Zone Air Distribution Effectiveness in Heating Mode
  No,                                     !- Account for Dedicated Outdoor Air System
  NeutralSupplyAir,                       !- Dedicated Outdoor Air System Control Strategy
  autosize,                               !- Dedicated Outdoor Air Low Setpoint Temperature for Design {C}
  autosize;                               !- Dedicated Outdoor Air High Setpoint Temperature for Design {C}

OS:ZoneHVAC:EquipmentList,
  {ecd9dbd2-73c4-43dc-a986-8cc6089c5732}, !- Handle
  Zone HVAC Equipment List 2,             !- Name
  {8ee0e782-cae1-4014-942c-dd2f79dca9ac}, !- Thermal Zone
  ,                                       !- Load Distribution Scheme
  {89445dae-7bb5-4cb2-b89f-b4c35ae4b163}, !- Zone Equipment 1
  1,                                      !- Zone Equipment Cooling Sequence 1
  1,                                      !- Zone Equipment Heating or No-Load Sequence 1
  ,                                       !- Zone Equipment Sequential Cooling Fraction Schedule Name 1
  ;                                       !- Zone Equipment Sequential Heating Fraction Schedule Name 1

OS:Space,
  {f2e811f7-9fcd-4ea4-9742-2e71707fd7d4}, !- Handle
  living space|unit 2|story 1,            !- Name
  {e553e211-ba4c-469a-b999-a52175d645bf}, !- Space Type Name
  ,                                       !- Default Construction Set Name
  ,                                       !- Default Schedule Set Name
  -0,                                     !- Direction of Relative North {deg}
  0,                                      !- X Origin {m}
  0,                                      !- Y Origin {m}
  0,                                      !- Z Origin {m}
  ,                                       !- Building Story Name
  {8ee0e782-cae1-4014-942c-dd2f79dca9ac}, !- Thermal Zone Name
  ,                                       !- Part of Total Floor Area
  ,                                       !- Design Specification Outdoor Air Object Name
  {9f7ee923-5bd9-4683-a8ec-a0be40944265}; !- Building Unit Name

OS:Surface,
  {ae2b1a28-3e1c-4084-9346-144c69b9307c}, !- Handle
  Surface 12,                             !- Name
  Wall,                                   !- Surface Type
  ,                                       !- Construction Name
  {f2e811f7-9fcd-4ea4-9742-2e71707fd7d4}, !- Space Name
  Outdoors,                               !- Outside Boundary Condition
  ,                                       !- Outside Boundary Condition Object
  SunExposed,                             !- Sun Exposure
  WindExposed,                            !- Wind Exposure
  ,                                       !- View Factor to Ground
  ,                                       !- Number of Vertices
  6.46578440716979, -12.9315688143396, 2.4384, !- X,Y,Z Vertex 1 {m}
  6.46578440716979, -12.9315688143396, 0, !- X,Y,Z Vertex 2 {m}
  12.9315688143396, -12.9315688143396, 0, !- X,Y,Z Vertex 3 {m}
  12.9315688143396, -12.9315688143396, 2.4384; !- X,Y,Z Vertex 4 {m}

OS:Surface,
  {9e763e33-13bf-4146-a38a-76bca5ab9c84}, !- Handle
  Surface 13,                             !- Name
  Wall,                                   !- Surface Type
  ,                                       !- Construction Name
  {f2e811f7-9fcd-4ea4-9742-2e71707fd7d4}, !- Space Name
  Surface,                                !- Outside Boundary Condition
  {f16e40ed-6f62-4363-ab76-79ad96544695}, !- Outside Boundary Condition Object
  NoSun,                                  !- Sun Exposure
  NoWind,                                 !- Wind Exposure
  ,                                       !- View Factor to Ground
  ,                                       !- Number of Vertices
  12.9315688143396, -12.9315688143396, 2.4384, !- X,Y,Z Vertex 1 {m}
  12.9315688143396, -12.9315688143396, 0, !- X,Y,Z Vertex 2 {m}
  12.9315688143396, 0, 0,                 !- X,Y,Z Vertex 3 {m}
  12.9315688143396, 0, 2.4384;            !- X,Y,Z Vertex 4 {m}

OS:Surface,
  {4135bd09-f5fb-40fb-9139-76ba796f923c}, !- Handle
  Surface 14,                             !- Name
  Wall,                                   !- Surface Type
  ,                                       !- Construction Name
  {f2e811f7-9fcd-4ea4-9742-2e71707fd7d4}, !- Space Name
  Outdoors,                               !- Outside Boundary Condition
  ,                                       !- Outside Boundary Condition Object
  SunExposed,                             !- Sun Exposure
  WindExposed,                            !- Wind Exposure
  ,                                       !- View Factor to Ground
  ,                                       !- Number of Vertices
  12.9315688143396, 0, 2.4384,            !- X,Y,Z Vertex 1 {m}
  12.9315688143396, 0, 0,                 !- X,Y,Z Vertex 2 {m}
  6.46578440716979, 0, 0,                 !- X,Y,Z Vertex 3 {m}
  6.46578440716979, 0, 2.4384;            !- X,Y,Z Vertex 4 {m}

OS:Surface,
  {e4466615-2111-4ab5-9a8e-c47abfea84ce}, !- Handle
  Surface 15,                             !- Name
  Wall,                                   !- Surface Type
  ,                                       !- Construction Name
  {f2e811f7-9fcd-4ea4-9742-2e71707fd7d4}, !- Space Name
  Surface,                                !- Outside Boundary Condition
  {d651a891-9663-44c2-b527-865b074070b7}, !- Outside Boundary Condition Object
  NoSun,                                  !- Sun Exposure
  NoWind,                                 !- Wind Exposure
  ,                                       !- View Factor to Ground
  ,                                       !- Number of Vertices
  6.46578440716979, 0, 2.4384,            !- X,Y,Z Vertex 1 {m}
  6.46578440716979, 0, 0,                 !- X,Y,Z Vertex 2 {m}
  6.46578440716979, -12.9315688143396, 0, !- X,Y,Z Vertex 3 {m}
  6.46578440716979, -12.9315688143396, 2.4384; !- X,Y,Z Vertex 4 {m}

OS:Surface,
  {af836e72-4be4-4978-91f7-e14395c9a29b}, !- Handle
  Surface 16,                             !- Name
  RoofCeiling,                            !- Surface Type
  ,                                       !- Construction Name
  {f2e811f7-9fcd-4ea4-9742-2e71707fd7d4}, !- Space Name
  Surface,                                !- Outside Boundary Condition
  {f73b90e9-6452-4aab-a553-b5458a9a59b7}, !- Outside Boundary Condition Object
  NoSun,                                  !- Sun Exposure
  NoWind,                                 !- Wind Exposure
  ,                                       !- View Factor to Ground
  ,                                       !- Number of Vertices
  12.9315688143396, -12.9315688143396, 2.4384, !- X,Y,Z Vertex 1 {m}
  12.9315688143396, 0, 2.4384,            !- X,Y,Z Vertex 2 {m}
  6.46578440716979, 0, 2.4384,            !- X,Y,Z Vertex 3 {m}
  6.46578440716979, -12.9315688143396, 2.4384; !- X,Y,Z Vertex 4 {m}

OS:Surface,
  {75ea6f27-e53c-48c3-8d0b-aa2f8747eeee}, !- Handle
  Surface 17,                             !- Name
  Floor,                                  !- Surface Type
  ,                                       !- Construction Name
  {f2e811f7-9fcd-4ea4-9742-2e71707fd7d4}, !- Space Name
  Foundation,                             !- Outside Boundary Condition
  ,                                       !- Outside Boundary Condition Object
  NoSun,                                  !- Sun Exposure
  NoWind,                                 !- Wind Exposure
  ,                                       !- View Factor to Ground
  ,                                       !- Number of Vertices
  6.46578440716979, -12.9315688143396, 0, !- X,Y,Z Vertex 1 {m}
  6.46578440716979, 0, 0,                 !- X,Y,Z Vertex 2 {m}
  12.9315688143396, 0, 0,                 !- X,Y,Z Vertex 3 {m}
  12.9315688143396, -12.9315688143396, 0; !- X,Y,Z Vertex 4 {m}

OS:ThermalZone,
  {bdba130c-bdef-4a1e-96f0-abb3999a978c}, !- Handle
  living zone|unit 3,                     !- Name
  ,                                       !- Multiplier
  ,                                       !- Ceiling Height {m}
  ,                                       !- Volume {m3}
  ,                                       !- Floor Area {m2}
  ,                                       !- Zone Inside Convection Algorithm
  ,                                       !- Zone Outside Convection Algorithm
  ,                                       !- Zone Conditioning Equipment List Name
  {741669dc-9456-44f8-84fc-ea179080a4c9}, !- Zone Air Inlet Port List
  {5562dfe5-422b-46e2-bc4d-d9c8a5133fe6}, !- Zone Air Exhaust Port List
  {d25565e8-525d-4750-bc18-7dc7fd76060b}, !- Zone Air Node Name
  {faf3edbe-8651-495c-989b-5baea0841790}, !- Zone Return Air Port List
  ,                                       !- Primary Daylighting Control Name
  ,                                       !- Fraction of Zone Controlled by Primary Daylighting Control
  ,                                       !- Secondary Daylighting Control Name
  ,                                       !- Fraction of Zone Controlled by Secondary Daylighting Control
  ,                                       !- Illuminance Map Name
  ,                                       !- Group Rendering Name
  ,                                       !- Thermostat Name
  No;                                     !- Use Ideal Air Loads

OS:Node,