!- NOTE: Auto-generated from /test/osw_files/SFA_HVACSizing_Equip_Central_System_PTAC_Autosize.osw

OS:Version,
  {8414bd26-1be2-432e-9414-e4b5e8f26e4b}, !- Handle
  2.8.0;                                  !- Version Identifier

OS:SimulationControl,
  {3200d324-ed46-4778-9f35-f002de461167}, !- Handle
  ,                                       !- Do Zone Sizing Calculation
  ,                                       !- Do System Sizing Calculation
  ,                                       !- Do Plant Sizing Calculation
  Yes;                                    !- Run Simulation for Sizing Periods

OS:Timestep,
  {eb85a5ef-88f6-4e96-ad3e-d762960b28f6}, !- Handle
  6;                                      !- Number of Timesteps per Hour

OS:ShadowCalculation,
  {c58188f8-02ef-48d8-8118-1593bbd378fc}, !- Handle
  20,                                     !- Calculation Frequency
  200;                                    !- Maximum Figures in Shadow Overlap Calculations

OS:SurfaceConvectionAlgorithm:Outside,
  {a107dd9b-8bf1-42f6-81cf-3efbee389940}, !- Handle
  DOE-2;                                  !- Algorithm

OS:SurfaceConvectionAlgorithm:Inside,
  {67d04c67-3796-4d29-a40d-e3831b981b6f}, !- Handle
  TARP;                                   !- Algorithm

OS:ZoneCapacitanceMultiplier:ResearchSpecial,
  {55d7e8a2-14bf-4820-a4ee-f5e498cdf3c1}, !- Handle
  ,                                       !- Temperature Capacity Multiplier
  15,                                     !- Humidity Capacity Multiplier
  ;                                       !- Carbon Dioxide Capacity Multiplier

OS:RunPeriod,
  {d05d7b4a-3766-4b9d-8ac7-2064fb844abe}, !- Handle
  Run Period 1,                           !- Name
  1,                                      !- Begin Month
  1,                                      !- Begin Day of Month
  12,                                     !- End Month
  31,                                     !- End Day of Month
  ,                                       !- Use Weather File Holidays and Special Days
  ,                                       !- Use Weather File Daylight Saving Period
  ,                                       !- Apply Weekend Holiday Rule
  ,                                       !- Use Weather File Rain Indicators
  ,                                       !- Use Weather File Snow Indicators
  ;                                       !- Number of Times Runperiod to be Repeated

OS:WeatherFile,
  {26f37b68-cdba-4079-a8b5-e61f98f55437}, !- Handle
  Denver Intl Ap,                         !- City
  CO,                                     !- State Province Region
  USA,                                    !- Country
  TMY3,                                   !- Data Source
  725650,                                 !- WMO Number
  39.83,                                  !- Latitude {deg}
  -104.65,                                !- Longitude {deg}
  -7,                                     !- Time Zone {hr}
  1650,                                   !- Elevation {m}
  file:../weather/USA_CO_Denver.Intl.AP.725650_TMY3.epw, !- Url
  E23378AA;                               !- Checksum

OS:AdditionalProperties,
  {e34dd241-245f-47a4-803c-999a0ec95758}, !- Handle
  {26f37b68-cdba-4079-a8b5-e61f98f55437}, !- Object Name
  EPWHeaderCity,                          !- Feature Name 1
  String,                                 !- Feature Data Type 1
  Denver Intl Ap,                         !- Feature Value 1
  EPWHeaderState,                         !- Feature Name 2
  String,                                 !- Feature Data Type 2
  CO,                                     !- Feature Value 2
  EPWHeaderCountry,                       !- Feature Name 3
  String,                                 !- Feature Data Type 3
  USA,                                    !- Feature Value 3
  EPWHeaderDataSource,                    !- Feature Name 4
  String,                                 !- Feature Data Type 4
  TMY3,                                   !- Feature Value 4
  EPWHeaderStation,                       !- Feature Name 5
  String,                                 !- Feature Data Type 5
  725650,                                 !- Feature Value 5
  EPWHeaderLatitude,                      !- Feature Name 6
  Double,                                 !- Feature Data Type 6
  39.829999999999998,                     !- Feature Value 6
  EPWHeaderLongitude,                     !- Feature Name 7
  Double,                                 !- Feature Data Type 7
  -104.65000000000001,                    !- Feature Value 7
  EPWHeaderTimezone,                      !- Feature Name 8
  Double,                                 !- Feature Data Type 8
  -7,                                     !- Feature Value 8
  EPWHeaderAltitude,                      !- Feature Name 9
  Double,                                 !- Feature Data Type 9
  5413.3858267716532,                     !- Feature Value 9
  EPWHeaderLocalPressure,                 !- Feature Name 10
  Double,                                 !- Feature Data Type 10
  0.81937567683596546,                    !- Feature Value 10
  EPWHeaderRecordsPerHour,                !- Feature Name 11
  Double,                                 !- Feature Data Type 11
  0,                                      !- Feature Value 11
  EPWDataAnnualAvgDrybulb,                !- Feature Name 12
  Double,                                 !- Feature Data Type 12
  51.575616438356228,                     !- Feature Value 12
  EPWDataAnnualMinDrybulb,                !- Feature Name 13
  Double,                                 !- Feature Data Type 13
  -2.9200000000000017,                    !- Feature Value 13
  EPWDataAnnualMaxDrybulb,                !- Feature Name 14
  Double,                                 !- Feature Data Type 14
  104,                                    !- Feature Value 14
  EPWDataCDD50F,                          !- Feature Name 15
  Double,                                 !- Feature Data Type 15
  3072.2925000000005,                     !- Feature Value 15
  EPWDataCDD65F,                          !- Feature Name 16
  Double,                                 !- Feature Data Type 16
  883.62000000000035,                     !- Feature Value 16
  EPWDataHDD50F,                          !- Feature Name 17
  Double,                                 !- Feature Data Type 17
  2497.1925000000001,                     !- Feature Value 17
  EPWDataHDD65F,                          !- Feature Name 18
  Double,                                 !- Feature Data Type 18
  5783.5200000000013,                     !- Feature Value 18
  EPWDataAnnualAvgWindspeed,              !- Feature Name 19
  Double,                                 !- Feature Data Type 19
  3.9165296803649667,                     !- Feature Value 19
  EPWDataMonthlyAvgDrybulbs,              !- Feature Name 20
  String,                                 !- Feature Data Type 20
  33.4191935483871&#4431.90142857142857&#4443.02620967741937&#4442.48624999999999&#4459.877741935483854&#4473.57574999999997&#4472.07975806451608&#4472.70008064516134&#4466.49200000000006&#4450.079112903225806&#4437.218250000000005&#4434.582177419354835, !- Feature Value 20
  EPWDataGroundMonthlyTemps,              !- Feature Name 21
  String,                                 !- Feature Data Type 21
  44.08306285945173&#4440.89570904991865&#4440.64045432632048&#4442.153016571250646&#4448.225111118704206&#4454.268919273837525&#4459.508577937551024&#4462.82777283423508&#4463.10975667174995&#4460.41014950381947&#4455.304105212311526&#4449.445696474514364, !- Feature Value 21
  EPWDataWSF,                             !- Feature Name 22
  Double,                                 !- Feature Data Type 22
  0.58999999999999997,                    !- Feature Value 22
  EPWDataMonthlyAvgDailyHighDrybulbs,     !- Feature Name 23
  String,                                 !- Feature Data Type 23
  47.41032258064516&#4446.58642857142857&#4455.15032258064517&#4453.708&#4472.80193548387098&#4488.67600000000002&#4486.1858064516129&#4485.87225806451613&#4482.082&#4463.18064516129033&#4448.73400000000001&#4448.87935483870968, !- Feature Value 23
  EPWDataMonthlyAvgDailyLowDrybulbs,      !- Feature Name 24
  String,                                 !- Feature Data Type 24
  19.347741935483874&#4419.856428571428573&#4430.316129032258065&#4431.112&#4447.41612903225806&#4457.901999999999994&#4459.063870967741934&#4460.956774193548384&#4452.352000000000004&#4438.41612903225806&#4427.002000000000002&#4423.02903225806451, !- Feature Value 24
  EPWDesignHeatingDrybulb,                !- Feature Name 25
  Double,                                 !- Feature Data Type 25
  12.02,                                  !- Feature Value 25
  EPWDesignHeatingWindspeed,              !- Feature Name 26
  Double,                                 !- Feature Data Type 26
  2.8062500000000004,                     !- Feature Value 26
  EPWDesignCoolingDrybulb,                !- Feature Name 27
  Double,                                 !- Feature Data Type 27
  91.939999999999998,                     !- Feature Value 27
  EPWDesignCoolingWetbulb,                !- Feature Name 28
  Double,                                 !- Feature Data Type 28
  59.95131430195849,                      !- Feature Value 28
  EPWDesignCoolingHumidityRatio,          !- Feature Name 29
  Double,                                 !- Feature Data Type 29
  0.0059161086834698092,                  !- Feature Value 29
  EPWDesignCoolingWindspeed,              !- Feature Name 30
  Double,                                 !- Feature Data Type 30
  3.7999999999999989,                     !- Feature Value 30
  EPWDesignDailyTemperatureRange,         !- Feature Name 31
  Double,                                 !- Feature Data Type 31
  24.915483870967748,                     !- Feature Value 31
  EPWDesignDehumidDrybulb,                !- Feature Name 32
  Double,                                 !- Feature Data Type 32
  67.996785714285721,                     !- Feature Value 32
  EPWDesignDehumidHumidityRatio,          !- Feature Name 33
  Double,                                 !- Feature Data Type 33
  0.012133744170488724,                   !- Feature Value 33
  EPWDesignCoolingDirectNormal,           !- Feature Name 34
  Double,                                 !- Feature Data Type 34
  985,                                    !- Feature Value 34
  EPWDesignCoolingDiffuseHorizontal,      !- Feature Name 35
  Double,                                 !- Feature Data Type 35
  84;                                     !- Feature Value 35

OS:YearDescription,
  {132a6cec-660a-4157-a69c-a815ddf97117}, !- Handle
  ,                                       !- Calendar Year
  Monday;                                 !- Day of Week for Start Day

OS:Site,
  {77055027-20ed-4ec7-b9d6-f8f37278bea4}, !- Handle
  Denver Intl Ap_CO_USA,                  !- Name
  39.83,                                  !- Latitude {deg}
  -104.65,                                !- Longitude {deg}
  -7,                                     !- Time Zone {hr}
  1650,                                   !- Elevation {m}
  Suburbs;                                !- Terrain

OS:ClimateZones,
  {96be1e04-4fbc-45e6-b969-efa43e597b6f}, !- Handle
  ,                                       !- Active Institution
  ,                                       !- Active Year
  ,                                       !- Climate Zone Institution Name 1
  ,                                       !- Climate Zone Document Name 1
  ,                                       !- Climate Zone Document Year 1
  ,                                       !- Climate Zone Value 1
  Building America,                       !- Climate Zone Institution Name 2
  ,                                       !- Climate Zone Document Name 2
  0,                                      !- Climate Zone Document Year 2
  Cold;                                   !- Climate Zone Value 2

OS:Site:WaterMainsTemperature,
  {79ebd73b-b17f-4da8-bc3f-18e45457855b}, !- Handle
  Correlation,                            !- Calculation Method
  ,                                       !- Temperature Schedule Name
  10.8753424657535,                       !- Annual Average Outdoor Air Temperature {C}
  23.1524007936508;                       !- Maximum Difference In Monthly Average Outdoor Air Temperatures {deltaC}

OS:RunPeriodControl:DaylightSavingTime,
  {8b851d11-c930-4b5c-95c6-ffc5f26e5258}, !- Handle
  4/7,                                    !- Start Date
  10/26;                                  !- End Date

OS:Site:GroundTemperature:Deep,
  {ded324b3-2a48-4936-aead-8bfaf3f1a225}, !- Handle
  10.8753424657535,                       !- January Deep Ground Temperature {C}
  10.8753424657535,                       !- February Deep Ground Temperature {C}
  10.8753424657535,                       !- March Deep Ground Temperature {C}
  10.8753424657535,                       !- April Deep Ground Temperature {C}
  10.8753424657535,                       !- May Deep Ground Temperature {C}
  10.8753424657535,                       !- June Deep Ground Temperature {C}
  10.8753424657535,                       !- July Deep Ground Temperature {C}
  10.8753424657535,                       !- August Deep Ground Temperature {C}
  10.8753424657535,                       !- September Deep Ground Temperature {C}
  10.8753424657535,                       !- October Deep Ground Temperature {C}
  10.8753424657535,                       !- November Deep Ground Temperature {C}
  10.8753424657535;                       !- December Deep Ground Temperature {C}

OS:ThermalZone,
  {c775e329-2cfd-4aca-b1a4-303b8e9b44c5}, !- Handle
  living zone,                            !- Name
  ,                                       !- Multiplier
  ,                                       !- Ceiling Height {m}
  ,                                       !- Volume {m3}
  ,                                       !- Floor Area {m2}
  ,                                       !- Zone Inside Convection Algorithm
  ,                                       !- Zone Outside Convection Algorithm
  ,                                       !- Zone Conditioning Equipment List Name
  {a976a059-eb97-49fb-b81c-5fc9b0ed6f98}, !- Zone Air Inlet Port List
  {7b825083-a944-4d5c-a474-d41bd76be355}, !- Zone Air Exhaust Port List
  {67b0cd1a-f0d2-46c1-9c84-c3d726fd2ce4}, !- Zone Air Node Name
  {f4deeaed-25f8-432f-a186-3acf9a1a06a7}, !- Zone Return Air Port List
  ,                                       !- Primary Daylighting Control Name
  ,                                       !- Fraction of Zone Controlled by Primary Daylighting Control
  ,                                       !- Secondary Daylighting Control Name
  ,                                       !- Fraction of Zone Controlled by Secondary Daylighting Control
  ,                                       !- Illuminance Map Name
  ,                                       !- Group Rendering Name
  {d15d0725-03ee-467c-9b4b-4ea217480cac}, !- Thermostat Name
  No;                                     !- Use Ideal Air Loads

OS:Node,
  {8ba9c45c-617f-4d94-a404-9ff81b8c7046}, !- Handle
  Node 1,                                 !- Name
  {67b0cd1a-f0d2-46c1-9c84-c3d726fd2ce4}, !- Inlet Port
  ;                                       !- Outlet Port

OS:Connection,
  {67b0cd1a-f0d2-46c1-9c84-c3d726fd2ce4}, !- Handle
  {9f2c0c2c-6e23-4b8a-8496-036a6fc57f17}, !- Name
  {c775e329-2cfd-4aca-b1a4-303b8e9b44c5}, !- Source Object
  11,                                     !- Outlet Port
  {8ba9c45c-617f-4d94-a404-9ff81b8c7046}, !- Target Object
  2;                                      !- Inlet Port

OS:PortList,
  {a976a059-eb97-49fb-b81c-5fc9b0ed6f98}, !- Handle
  {b2031f95-df85-409e-9e6f-b3604461102e}, !- Name
  {c775e329-2cfd-4aca-b1a4-303b8e9b44c5}, !- HVAC Component
  {0706ba0d-a0b0-4de4-bf64-5fd72f3b05f7}; !- Port 1

OS:PortList,
  {7b825083-a944-4d5c-a474-d41bd76be355}, !- Handle
  {4eb8854e-b5ca-41ba-8c7b-d29b1e35065e}, !- Name
  {c775e329-2cfd-4aca-b1a4-303b8e9b44c5}, !- HVAC Component
  {2ce75d71-7d21-43e1-bba9-bd14817b646d}; !- Port 1

OS:PortList,
  {f4deeaed-25f8-432f-a186-3acf9a1a06a7}, !- Handle
  {6bef1b25-c07c-464d-8c8b-a25fc2bc02e8}, !- Name
  {c775e329-2cfd-4aca-b1a4-303b8e9b44c5}; !- HVAC Component

OS:Sizing:Zone,
  {0d71e1ad-4ccf-4dbd-aa83-476017f8c8e3}, !- Handle
  {c775e329-2cfd-4aca-b1a4-303b8e9b44c5}, !- Zone or ZoneList Name
  SupplyAirTemperature,                   !- Zone Cooling Design Supply Air Temperature Input Method
  13.8888888888889,                       !- Zone Cooling Design Supply Air Temperature {C}
  11.11,                                  !- Zone Cooling Design Supply Air Temperature Difference {deltaC}
  SupplyAirTemperature,                   !- Zone Heating Design Supply Air Temperature Input Method
  50.0000000000001,                       !- Zone Heating Design Supply Air Temperature {C}
  11.11,                                  !- Zone Heating Design Supply Air Temperature Difference {deltaC}
  0.008,                                  !- Zone Cooling Design Supply Air Humidity Ratio {kg-H2O/kg-air}
  0.008,                                  !- Zone Heating Design Supply Air Humidity Ratio {kg-H2O/kg-air}
  ,                                       !- Zone Heating Sizing Factor
  ,                                       !- Zone Cooling Sizing Factor
  DesignDay,                              !- Cooling Design Air Flow Method
  ,                                       !- Cooling Design Air Flow Rate {m3/s}
  ,                                       !- Cooling Minimum Air Flow per Zone Floor Area {m3/s-m2}
  ,                                       !- Cooling Minimum Air Flow {m3/s}
  ,                                       !- Cooling Minimum Air Flow Fraction
  DesignDay,                              !- Heating Design Air Flow Method
  ,                                       !- Heating Design Air Flow Rate {m3/s}
  ,                                       !- Heating Maximum Air Flow per Zone Floor Area {m3/s-m2}
  ,                                       !- Heating Maximum Air Flow {m3/s}
  ,                                       !- Heating Maximum Air Flow Fraction
  ,                                       !- Design Zone Air Distribution Effectiveness in Cooling Mode
  ,                                       !- Design Zone Air Distribution Effectiveness in Heating Mode
  No,                                     !- Account for Dedicated Outdoor Air System
  NeutralSupplyAir,                       !- Dedicated Outdoor Air System Control Strategy
  autosize,                               !- Dedicated Outdoor Air Low Setpoint Temperature for Design {C}
  autosize;                               !- Dedicated Outdoor Air High Setpoint Temperature for Design {C}

OS:ZoneHVAC:EquipmentList,
  {7804af23-926c-4eeb-b775-65e7ac10762a}, !- Handle
  Zone HVAC Equipment List 1,             !- Name
  {c775e329-2cfd-4aca-b1a4-303b8e9b44c5}, !- Thermal Zone
  ,                                       !- Load Distribution Scheme
  {0bd9f7b5-84b4-4525-8e03-cdf9ae6146f3}, !- Zone Equipment 1
  1,                                      !- Zone Equipment Cooling Sequence 1
  1,                                      !- Zone Equipment Heating or No-Load Sequence 1
  ,                                       !- Zone Equipment Sequential Cooling Fraction 1
  ;                                       !- Zone Equipment Sequential Heating Fraction 1

OS:Space,
  {03b89175-3843-4b85-9f9a-12f1bb85d478}, !- Handle
  living space,                           !- Name
  {3bf63516-d0fd-41b9-a8ff-a70447a6b05b}, !- Space Type Name
  ,                                       !- Default Construction Set Name
  ,                                       !- Default Schedule Set Name
  ,                                       !- Direction of Relative North {deg}
  ,                                       !- X Origin {m}
  ,                                       !- Y Origin {m}
  ,                                       !- Z Origin {m}
  ,                                       !- Building Story Name
  {c775e329-2cfd-4aca-b1a4-303b8e9b44c5}, !- Thermal Zone Name
  ,                                       !- Part of Total Floor Area
  ,                                       !- Design Specification Outdoor Air Object Name
  {4ad7e2e0-89e0-46df-838c-ba3ab7f593dc}; !- Building Unit Name

OS:Surface,
  {a81a998c-05b2-40ac-8fd9-be965a732e63}, !- Handle
  Surface 1,                              !- Name
  Floor,                                  !- Surface Type
  {56392194-5ebd-4446-a22c-65bf91a2fcba}, !- Construction Name
  {03b89175-3843-4b85-9f9a-12f1bb85d478}, !- Space Name
  Surface,                                !- Outside Boundary Condition
  {d465f1dc-ef38-444c-aa06-381379b3724d}, !- Outside Boundary Condition Object
  NoSun,                                  !- Sun Exposure
  NoWind,                                 !- Wind Exposure
  ,                                       !- View Factor to Ground
  ,                                       !- Number of Vertices
  0, -9.144, 0,                           !- X,Y,Z Vertex 1 {m}
  0, 0, 0,                                !- X,Y,Z Vertex 2 {m}
  4.572, 0, 0,                            !- X,Y,Z Vertex 3 {m}
  4.572, -9.144, 0;                       !- X,Y,Z Vertex 4 {m}

OS:Surface,
  {dc2cd07a-a57f-41a1-b768-5ec2c3244510}, !- Handle
  Surface 2,                              !- Name
  Wall,                                   !- Surface Type
  {3f8c98eb-d45b-427b-a01f-4e8673764919}, !- Construction Name
  {03b89175-3843-4b85-9f9a-12f1bb85d478}, !- Space Name
  Outdoors,                               !- Outside Boundary Condition
  ,                                       !- Outside Boundary Condition Object
  SunExposed,                             !- Sun Exposure
  WindExposed,                            !- Wind Exposure
  ,                                       !- View Factor to Ground
  ,                                       !- Number of Vertices
  0, 0, 2.4384,                           !- X,Y,Z Vertex 1 {m}
  0, 0, 0,                                !- X,Y,Z Vertex 2 {m}
  0, -9.144, 0,                           !- X,Y,Z Vertex 3 {m}
  0, -9.144, 2.4384;                      !- X,Y,Z Vertex 4 {m}

OS:Surface,
  {bdcaeeed-aba1-4929-840b-6cbf61df77ce}, !- Handle
  Surface 3,                              !- Name
  Wall,                                   !- Surface Type
  {3f8c98eb-d45b-427b-a01f-4e8673764919}, !- Construction Name
  {03b89175-3843-4b85-9f9a-12f1bb85d478}, !- Space Name
  Outdoors,                               !- Outside Boundary Condition
  ,                                       !- Outside Boundary Condition Object
  SunExposed,                             !- Sun Exposure
  WindExposed,                            !- Wind Exposure
  ,                                       !- View Factor to Ground
  ,                                       !- Number of Vertices
  4.572, 0, 2.4384,                       !- X,Y,Z Vertex 1 {m}
  4.572, 0, 0,                            !- X,Y,Z Vertex 2 {m}
  0, 0, 0,                                !- X,Y,Z Vertex 3 {m}
  0, 0, 2.4384;                           !- X,Y,Z Vertex 4 {m}

OS:Surface,
  {748cac0b-ddb0-4bd0-99a5-1d6a2a119cb3}, !- Handle
  Surface 4,                              !- Name
  Wall,                                   !- Surface Type
  {32c36c10-df40-4263-ab91-5491e51c5f30}, !- Construction Name
  {03b89175-3843-4b85-9f9a-12f1bb85d478}, !- Space Name
  Surface,                                !- Outside Boundary Condition
  {1ede8d00-085e-4835-96b5-c4b163e76e5d}, !- Outside Boundary Condition Object
  NoSun,                                  !- Sun Exposure
  NoWind,                                 !- Wind Exposure
  ,                                       !- View Factor to Ground
  ,                                       !- Number of Vertices
  4.572, -9.144, 2.4384,                  !- X,Y,Z Vertex 1 {m}
  4.572, -9.144, 0,                       !- X,Y,Z Vertex 2 {m}
  4.572, 0, 0,                            !- X,Y,Z Vertex 3 {m}
  4.572, 0, 2.4384;                       !- X,Y,Z Vertex 4 {m}

OS:Surface,
  {ebd53d44-bf40-4a67-91d6-9a1dd07d8c0f}, !- Handle
  Surface 5,                              !- Name
  Wall,                                   !- Surface Type
  {3f8c98eb-d45b-427b-a01f-4e8673764919}, !- Construction Name
  {03b89175-3843-4b85-9f9a-12f1bb85d478}, !- Space Name
  Outdoors,                               !- Outside Boundary Condition
  ,                                       !- Outside Boundary Condition Object
  SunExposed,                             !- Sun Exposure
  WindExposed,                            !- Wind Exposure
  ,                                       !- View Factor to Ground
  ,                                       !- Number of Vertices
  4.572, -9.144, 0,                       !- X,Y,Z Vertex 1 {m}
  4.572, -9.144, 2.4384,                  !- X,Y,Z Vertex 2 {m}
  1.04865714285714, -9.144, 2.4384,       !- X,Y,Z Vertex 3 {m}
  1.04865714285714, -9.144, 0;            !- X,Y,Z Vertex 4 {m}

OS:Surface,
  {9591e30f-47d5-4554-9a58-e7881d08e1eb}, !- Handle
  Surface 6,                              !- Name
  RoofCeiling,                            !- Surface Type
  {021e712d-f287-443e-b724-a30875487c12}, !- Construction Name
  {03b89175-3843-4b85-9f9a-12f1bb85d478}, !- Space Name
  Surface,                                !- Outside Boundary Condition
  {9cea8edb-73dc-49aa-b152-2669002c2957}, !- Outside Boundary Condition Object
  NoSun,                                  !- Sun Exposure
  NoWind,                                 !- Wind Exposure
  ,                                       !- View Factor to Ground
  ,                                       !- Number of Vertices
  4.572, -9.144, 2.4384,                  !- X,Y,Z Vertex 1 {m}
  4.572, 0, 2.4384,                       !- X,Y,Z Vertex 2 {m}
  0, 0, 2.4384,                           !- X,Y,Z Vertex 3 {m}
  0, -9.144, 2.4384;                      !- X,Y,Z Vertex 4 {m}

OS:SpaceType,
  {3bf63516-d0fd-41b9-a8ff-a70447a6b05b}, !- Handle
  Space Type 1,                           !- Name
  ,                                       !- Default Construction Set Name
  ,                                       !- Default Schedule Set Name
  ,                                       !- Group Rendering Name
  ,                                       !- Design Specification Outdoor Air Object Name
  ,                                       !- Standards Template
  ,                                       !- Standards Building Type
  living;                                 !- Standards Space Type

OS:ThermalZone,
  {e2ee02c8-254b-43b8-a8e8-893af833bc19}, !- Handle
  living zone|unit 2,                     !- Name
  ,                                       !- Multiplier
  ,                                       !- Ceiling Height {m}
  ,                                       !- Volume {m3}
  ,                                       !- Floor Area {m2}
  ,                                       !- Zone Inside Convection Algorithm
  ,                                       !- Zone Outside Convection Algorithm
  ,                                       !- Zone Conditioning Equipment List Name
  {2a03cd9e-db6b-432b-b3f0-5905daf545fc}, !- Zone Air Inlet Port List
  {f6be12ed-9afb-4945-b28e-71c1aece647a}, !- Zone Air Exhaust Port List
  {795f1593-9456-4511-a18c-0e663193e1c0}, !- Zone Air Node Name
  {4c7d6d59-6156-4dbc-874a-d4f054f7a36f}, !- Zone Return Air Port List
  ,                                       !- Primary Daylighting Control Name
  ,                                       !- Fraction of Zone Controlled by Primary Daylighting Control
  ,                                       !- Secondary Daylighting Control Name
  ,                                       !- Fraction of Zone Controlled by Secondary Daylighting Control
  ,                                       !- Illuminance Map Name
  ,                                       !- Group Rendering Name
  {d9e46d2b-8395-4980-8a9e-f10495fd8b6a}, !- Thermostat Name
  No;                                     !- Use Ideal Air Loads

OS:Node,
  {a45d8fca-1cd7-45ea-b0fa-6c80e6cfefd3}, !- Handle
  Node 2,                                 !- Name
  {795f1593-9456-4511-a18c-0e663193e1c0}, !- Inlet Port
  ;                                       !- Outlet Port

OS:Connection,
  {795f1593-9456-4511-a18c-0e663193e1c0}, !- Handle
  {762110e2-d6c2-48f6-95bb-95ea54a1710c}, !- Name
  {e2ee02c8-254b-43b8-a8e8-893af833bc19}, !- Source Object
  11,                                     !- Outlet Port
  {a45d8fca-1cd7-45ea-b0fa-6c80e6cfefd3}, !- Target Object
  2;                                      !- Inlet Port

OS:PortList,
  {2a03cd9e-db6b-432b-b3f0-5905daf545fc}, !- Handle
  {f7ce628b-c777-4eb7-b9c6-d9907ffde9d1}, !- Name
  {e2ee02c8-254b-43b8-a8e8-893af833bc19}, !- HVAC Component
  {556b7959-38cf-4d68-b0de-c40a535d377c}; !- Port 1

OS:PortList,
  {f6be12ed-9afb-4945-b28e-71c1aece647a}, !- Handle
  {23c5a1ce-b143-4d1c-aef5-646939e6a6b7}, !- Name
  {e2ee02c8-254b-43b8-a8e8-893af833bc19}, !- HVAC Component
  {edabf9ec-0e0c-4cc2-8351-bb424b37923a}; !- Port 1

OS:PortList,
  {4c7d6d59-6156-4dbc-874a-d4f054f7a36f}, !- Handle
  {cd8b8810-e733-49e1-9b18-ba24e675df56}, !- Name
  {e2ee02c8-254b-43b8-a8e8-893af833bc19}; !- HVAC Component

OS:Sizing:Zone,
  {5daea88e-927d-482c-b9a2-bb56bae798ca}, !- Handle
  {e2ee02c8-254b-43b8-a8e8-893af833bc19}, !- Zone or ZoneList Name
  SupplyAirTemperature,                   !- Zone Cooling Design Supply Air Temperature Input Method
  13.8888888888889,                       !- Zone Cooling Design Supply Air Temperature {C}