!- NOTE: Auto-generated from /test/osw_files/SFA_2story_FB_FuelBoiler_RoomAC_FuelTankWH.osw

OS:Version,
  {59eee3e3-2802-4a76-89c2-543efc15d47f}, !- Handle
  2.9.0;                                  !- Version Identifier

OS:SimulationControl,
  {1abc6a97-44c1-4b8e-a9ce-89d8f0b4ab40}, !- Handle
  ,                                       !- Do Zone Sizing Calculation
  ,                                       !- Do System Sizing Calculation
  ,                                       !- Do Plant Sizing Calculation
  No;                                     !- Run Simulation for Sizing Periods

OS:Timestep,
  {0e888c38-b189-41c9-b81b-913d4fdab457}, !- Handle
  6;                                      !- Number of Timesteps per Hour

OS:ShadowCalculation,
  {e3c3e1c9-bce3-4166-bdad-831a0c637e2b}, !- Handle
  20,                                     !- Calculation Frequency
  200;                                    !- Maximum Figures in Shadow Overlap Calculations

OS:SurfaceConvectionAlgorithm:Outside,
  {460656e8-d1ef-4534-b4f8-e754304a213c}, !- Handle
  DOE-2;                                  !- Algorithm

OS:SurfaceConvectionAlgorithm:Inside,
  {efa09829-1096-4de9-bc45-d70e22304b8f}, !- Handle
  TARP;                                   !- Algorithm

OS:ZoneCapacitanceMultiplier:ResearchSpecial,
  {f5dd7c46-153d-472f-962c-a3dbdaa0cbf7}, !- Handle
  ,                                       !- Temperature Capacity Multiplier
  15,                                     !- Humidity Capacity Multiplier
  ;                                       !- Carbon Dioxide Capacity Multiplier

OS:RunPeriod,
  {25fe601c-574e-43a1-852d-d67a0df6a51e}, !- Handle
  Run Period 1,                           !- Name
  1,                                      !- Begin Month
  1,                                      !- Begin Day of Month
  12,                                     !- End Month
  31,                                     !- End Day of Month
  ,                                       !- Use Weather File Holidays and Special Days
  ,                                       !- Use Weather File Daylight Saving Period
  ,                                       !- Apply Weekend Holiday Rule
  ,                                       !- Use Weather File Rain Indicators
  ,                                       !- Use Weather File Snow Indicators
  ;                                       !- Number of Times Runperiod to be Repeated

OS:YearDescription,
  {94e7a038-d0df-436b-9bb5-69dd148f7d0d}, !- Handle
  2007,                                   !- Calendar Year
  ,                                       !- Day of Week for Start Day
  ;                                       !- Is Leap Year

OS:WeatherFile,
  {ca79d46a-9dcb-4d3e-bf24-824c58fa3d46}, !- Handle
  Denver Intl Ap,                         !- City
  CO,                                     !- State Province Region
  USA,                                    !- Country
  TMY3,                                   !- Data Source
  725650,                                 !- WMO Number
  39.83,                                  !- Latitude {deg}
  -104.65,                                !- Longitude {deg}
  -7,                                     !- Time Zone {hr}
  1650,                                   !- Elevation {m}
  file:../weather/USA_CO_Denver.Intl.AP.725650_TMY3.epw, !- Url
  E23378AA;                               !- Checksum

OS:AdditionalProperties,
  {00b73fcf-9fbc-452a-9161-70fd9f062a6e}, !- Handle
  {ca79d46a-9dcb-4d3e-bf24-824c58fa3d46}, !- Object Name
  EPWHeaderCity,                          !- Feature Name 1
  String,                                 !- Feature Data Type 1
  Denver Intl Ap,                         !- Feature Value 1
  EPWHeaderState,                         !- Feature Name 2
  String,                                 !- Feature Data Type 2
  CO,                                     !- Feature Value 2
  EPWHeaderCountry,                       !- Feature Name 3
  String,                                 !- Feature Data Type 3
  USA,                                    !- Feature Value 3
  EPWHeaderDataSource,                    !- Feature Name 4
  String,                                 !- Feature Data Type 4
  TMY3,                                   !- Feature Value 4
  EPWHeaderStation,                       !- Feature Name 5
  String,                                 !- Feature Data Type 5
  725650,                                 !- Feature Value 5
  EPWHeaderLatitude,                      !- Feature Name 6
  Double,                                 !- Feature Data Type 6
  39.829999999999998,                     !- Feature Value 6
  EPWHeaderLongitude,                     !- Feature Name 7
  Double,                                 !- Feature Data Type 7
  -104.65000000000001,                    !- Feature Value 7
  EPWHeaderTimezone,                      !- Feature Name 8
  Double,                                 !- Feature Data Type 8
  -7,                                     !- Feature Value 8
  EPWHeaderAltitude,                      !- Feature Name 9
  Double,                                 !- Feature Data Type 9
  5413.3858267716532,                     !- Feature Value 9
  EPWHeaderLocalPressure,                 !- Feature Name 10
  Double,                                 !- Feature Data Type 10
  0.81937567683596546,                    !- Feature Value 10
  EPWHeaderRecordsPerHour,                !- Feature Name 11
  Double,                                 !- Feature Data Type 11
  0,                                      !- Feature Value 11
  EPWDataAnnualAvgDrybulb,                !- Feature Name 12
  Double,                                 !- Feature Data Type 12
  51.575616438356228,                     !- Feature Value 12
  EPWDataAnnualMinDrybulb,                !- Feature Name 13
  Double,                                 !- Feature Data Type 13
  -2.9200000000000017,                    !- Feature Value 13
  EPWDataAnnualMaxDrybulb,                !- Feature Name 14
  Double,                                 !- Feature Data Type 14
  104,                                    !- Feature Value 14
  EPWDataCDD50F,                          !- Feature Name 15
  Double,                                 !- Feature Data Type 15
  3072.2925000000005,                     !- Feature Value 15
  EPWDataCDD65F,                          !- Feature Name 16
  Double,                                 !- Feature Data Type 16
  883.62000000000035,                     !- Feature Value 16
  EPWDataHDD50F,                          !- Feature Name 17
  Double,                                 !- Feature Data Type 17
  2497.1925000000001,                     !- Feature Value 17
  EPWDataHDD65F,                          !- Feature Name 18
  Double,                                 !- Feature Data Type 18
  5783.5200000000013,                     !- Feature Value 18
  EPWDataAnnualAvgWindspeed,              !- Feature Name 19
  Double,                                 !- Feature Data Type 19
  3.9165296803649667,                     !- Feature Value 19
  EPWDataMonthlyAvgDrybulbs,              !- Feature Name 20
  String,                                 !- Feature Data Type 20
  33.4191935483871&#4431.90142857142857&#4443.02620967741937&#4442.48624999999999&#4459.877741935483854&#4473.57574999999997&#4472.07975806451608&#4472.70008064516134&#4466.49200000000006&#4450.079112903225806&#4437.218250000000005&#4434.582177419354835, !- Feature Value 20
  EPWDataGroundMonthlyTemps,              !- Feature Name 21
  String,                                 !- Feature Data Type 21
  44.08306285945173&#4440.89570904991865&#4440.64045432632048&#4442.153016571250646&#4448.225111118704206&#4454.268919273837525&#4459.508577937551024&#4462.82777283423508&#4463.10975667174995&#4460.41014950381947&#4455.304105212311526&#4449.445696474514364, !- Feature Value 21
  EPWDataWSF,                             !- Feature Name 22
  Double,                                 !- Feature Data Type 22
  0.58999999999999997,                    !- Feature Value 22
  EPWDataMonthlyAvgDailyHighDrybulbs,     !- Feature Name 23
  String,                                 !- Feature Data Type 23
  47.41032258064516&#4446.58642857142857&#4455.15032258064517&#4453.708&#4472.80193548387098&#4488.67600000000002&#4486.1858064516129&#4485.87225806451613&#4482.082&#4463.18064516129033&#4448.73400000000001&#4448.87935483870968, !- Feature Value 23
  EPWDataMonthlyAvgDailyLowDrybulbs,      !- Feature Name 24
  String,                                 !- Feature Data Type 24
  19.347741935483874&#4419.856428571428573&#4430.316129032258065&#4431.112&#4447.41612903225806&#4457.901999999999994&#4459.063870967741934&#4460.956774193548384&#4452.352000000000004&#4438.41612903225806&#4427.002000000000002&#4423.02903225806451, !- Feature Value 24
  EPWDesignHeatingDrybulb,                !- Feature Name 25
  Double,                                 !- Feature Data Type 25
  12.02,                                  !- Feature Value 25
  EPWDesignHeatingWindspeed,              !- Feature Name 26
  Double,                                 !- Feature Data Type 26
  2.8062500000000004,                     !- Feature Value 26
  EPWDesignCoolingDrybulb,                !- Feature Name 27
  Double,                                 !- Feature Data Type 27
  91.939999999999998,                     !- Feature Value 27
  EPWDesignCoolingWetbulb,                !- Feature Name 28
  Double,                                 !- Feature Data Type 28
  59.95131430195849,                      !- Feature Value 28
  EPWDesignCoolingHumidityRatio,          !- Feature Name 29
  Double,                                 !- Feature Data Type 29
  0.0059161086834698092,                  !- Feature Value 29
  EPWDesignCoolingWindspeed,              !- Feature Name 30
  Double,                                 !- Feature Data Type 30
  3.7999999999999989,                     !- Feature Value 30
  EPWDesignDailyTemperatureRange,         !- Feature Name 31
  Double,                                 !- Feature Data Type 31
  24.915483870967748,                     !- Feature Value 31
  EPWDesignDehumidDrybulb,                !- Feature Name 32
  Double,                                 !- Feature Data Type 32
  67.996785714285721,                     !- Feature Value 32
  EPWDesignDehumidHumidityRatio,          !- Feature Name 33
  Double,                                 !- Feature Data Type 33
  0.012133744170488724,                   !- Feature Value 33
  EPWDesignCoolingDirectNormal,           !- Feature Name 34
  Double,                                 !- Feature Data Type 34
  985,                                    !- Feature Value 34
  EPWDesignCoolingDiffuseHorizontal,      !- Feature Name 35
  Double,                                 !- Feature Data Type 35
  84;                                     !- Feature Value 35

OS:Site,
  {c1bef230-6403-48c5-ba2d-83e060c6031f}, !- Handle
  Denver Intl Ap_CO_USA,                  !- Name
  39.83,                                  !- Latitude {deg}
  -104.65,                                !- Longitude {deg}
  -7,                                     !- Time Zone {hr}
  1650,                                   !- Elevation {m}
  Suburbs;                                !- Terrain

OS:ClimateZones,
  {e8d12cbf-e5dc-4577-b4fb-f0db4128c132}, !- Handle
  ,                                       !- Active Institution
  ,                                       !- Active Year
  ,                                       !- Climate Zone Institution Name 1
  ,                                       !- Climate Zone Document Name 1
  ,                                       !- Climate Zone Document Year 1
  ,                                       !- Climate Zone Value 1
  Building America,                       !- Climate Zone Institution Name 2
  ,                                       !- Climate Zone Document Name 2
  0,                                      !- Climate Zone Document Year 2
  Cold;                                   !- Climate Zone Value 2

OS:Site:WaterMainsTemperature,
  {572d57c6-347f-4eed-9f90-03f41518e9f6}, !- Handle
  Correlation,                            !- Calculation Method
  ,                                       !- Temperature Schedule Name
  10.8753424657535,                       !- Annual Average Outdoor Air Temperature {C}
  23.1524007936508;                       !- Maximum Difference In Monthly Average Outdoor Air Temperatures {deltaC}

OS:RunPeriodControl:DaylightSavingTime,
  {ab287ae3-6bea-4ecb-af6b-07c2787f5951}, !- Handle
  4/7,                                    !- Start Date
  10/26;                                  !- End Date

OS:Site:GroundTemperature:Deep,
  {3d4189ae-88b9-4256-8a5c-cc43976cbca0}, !- Handle
  10.8753424657535,                       !- January Deep Ground Temperature {C}
  10.8753424657535,                       !- February Deep Ground Temperature {C}
  10.8753424657535,                       !- March Deep Ground Temperature {C}
  10.8753424657535,                       !- April Deep Ground Temperature {C}
  10.8753424657535,                       !- May Deep Ground Temperature {C}
  10.8753424657535,                       !- June Deep Ground Temperature {C}
  10.8753424657535,                       !- July Deep Ground Temperature {C}
  10.8753424657535,                       !- August Deep Ground Temperature {C}
  10.8753424657535,                       !- September Deep Ground Temperature {C}
  10.8753424657535,                       !- October Deep Ground Temperature {C}
  10.8753424657535,                       !- November Deep Ground Temperature {C}
  10.8753424657535;                       !- December Deep Ground Temperature {C}

OS:Building,
  {84430752-acdb-4e56-be96-3cc0fc553723}, !- Handle
  Building 1,                             !- Name
  ,                                       !- Building Sector Type
  270,                                    !- North Axis {deg}
  ,                                       !- Nominal Floor to Floor Height {m}
  ,                                       !- Space Type Name
  ,                                       !- Default Construction Set Name
  ,                                       !- Default Schedule Set Name
  3,                                      !- Standards Number of Stories
  2,                                      !- Standards Number of Above Ground Stories
  ,                                       !- Standards Template
  singlefamilyattached,                   !- Standards Building Type
  4;                                      !- Standards Number of Living Units

OS:AdditionalProperties,
  {fac781aa-f1fc-496c-8f1b-0e493cc194ec}, !- Handle
  {84430752-acdb-4e56-be96-3cc0fc553723}, !- Object Name
  Total Units Represented,                !- Feature Name 1
  Integer,                                !- Feature Data Type 1
  4,                                      !- Feature Value 1
  Total Units Modeled,                    !- Feature Name 2
  Integer,                                !- Feature Data Type 2
  4,                                      !- Feature Value 2
  has_water_heater_flue,                  !- Feature Name 3
  Boolean,                                !- Feature Data Type 3
  true,                                   !- Feature Value 3
  has_hvac_flue,                          !- Feature Name 4
  Boolean,                                !- Feature Data Type 4
  true;                                   !- Feature Value 4

OS:ThermalZone,
  {77463416-50f2-409b-a86d-e91b1558f541}, !- Handle
  living zone,                            !- Name
  ,                                       !- Multiplier
  ,                                       !- Ceiling Height {m}
  ,                                       !- Volume {m3}
  ,                                       !- Floor Area {m2}
  ,                                       !- Zone Inside Convection Algorithm
  ,                                       !- Zone Outside Convection Algorithm
  ,                                       !- Zone Conditioning Equipment List Name
  {92a4b36d-99d1-4b23-9106-2cee74900954}, !- Zone Air Inlet Port List
  {839b6166-24eb-4a08-a2f8-51e990bff79c}, !- Zone Air Exhaust Port List
  {c3a61084-45b2-4d0c-abd6-208b1428e865}, !- Zone Air Node Name
  {38cc5330-16d8-45ca-8a2f-fbb33b314b80}, !- Zone Return Air Port List
  ,                                       !- Primary Daylighting Control Name
  ,                                       !- Fraction of Zone Controlled by Primary Daylighting Control
  ,                                       !- Secondary Daylighting Control Name
  ,                                       !- Fraction of Zone Controlled by Secondary Daylighting Control
  ,                                       !- Illuminance Map Name
  ,                                       !- Group Rendering Name
  {c963ff46-0ae0-4e4b-82a9-b429b6d2767e}, !- Thermostat Name
  No;                                     !- Use Ideal Air Loads

OS:Node,
  {8f70830b-983d-47f9-8aa3-81fa499bb415}, !- Handle
  Node 1,                                 !- Name
  {c3a61084-45b2-4d0c-abd6-208b1428e865}, !- Inlet Port
  ;                                       !- Outlet Port

OS:Connection,
  {c3a61084-45b2-4d0c-abd6-208b1428e865}, !- Handle
  {83c430fe-81c3-41cf-a659-4e479bac9f5d}, !- Name
  {77463416-50f2-409b-a86d-e91b1558f541}, !- Source Object
  11,                                     !- Outlet Port
  {8f70830b-983d-47f9-8aa3-81fa499bb415}, !- Target Object
  2;                                      !- Inlet Port

OS:PortList,
  {92a4b36d-99d1-4b23-9106-2cee74900954}, !- Handle
  {dcd3c026-e794-43c9-afc9-465602124d27}, !- Name
  {77463416-50f2-409b-a86d-e91b1558f541}, !- HVAC Component
  {0a17d047-e76f-41cb-adc6-dfe4ad80be28}; !- Port 1

OS:PortList,
  {839b6166-24eb-4a08-a2f8-51e990bff79c}, !- Handle
  {ef72cdd1-ed73-41a8-a0b2-6809e2e12a76}, !- Name
  {77463416-50f2-409b-a86d-e91b1558f541}, !- HVAC Component
  {fed53696-4bbb-4d9c-b640-810f2358a18a}; !- Port 1

OS:PortList,
  {38cc5330-16d8-45ca-8a2f-fbb33b314b80}, !- Handle
  {e176e6ee-0e9a-4015-8909-5429c3ee6b95}, !- Name
  {77463416-50f2-409b-a86d-e91b1558f541}; !- HVAC Component

OS:Sizing:Zone,
  {d2795d49-d224-4478-9e35-d9b6e44e8cde}, !- Handle
  {77463416-50f2-409b-a86d-e91b1558f541}, !- Zone or ZoneList Name
  SupplyAirTemperature,                   !- Zone Cooling Design Supply Air Temperature Input Method
  14,                                     !- Zone Cooling Design Supply Air Temperature {C}
  11.11,                                  !- Zone Cooling Design Supply Air Temperature Difference {deltaC}
  SupplyAirTemperature,                   !- Zone Heating Design Supply Air Temperature Input Method
  40,                                     !- Zone Heating Design Supply Air Temperature {C}
  11.11,                                  !- Zone Heating Design Supply Air Temperature Difference {deltaC}
  0.0085,                                 !- Zone Cooling Design Supply Air Humidity Ratio {kg-H2O/kg-air}
  0.008,                                  !- Zone Heating Design Supply Air Humidity Ratio {kg-H2O/kg-air}
  ,                                       !- Zone Heating Sizing Factor
  ,                                       !- Zone Cooling Sizing Factor
  DesignDay,                              !- Cooling Design Air Flow Method
  ,                                       !- Cooling Design Air Flow Rate {m3/s}
  ,                                       !- Cooling Minimum Air Flow per Zone Floor Area {m3/s-m2}
  ,                                       !- Cooling Minimum Air Flow {m3/s}
  ,                                       !- Cooling Minimum Air Flow Fraction
  DesignDay,                              !- Heating Design Air Flow Method
  ,                                       !- Heating Design Air Flow Rate {m3/s}
  ,                                       !- Heating Maximum Air Flow per Zone Floor Area {m3/s-m2}
  ,                                       !- Heating Maximum Air Flow {m3/s}
  ,                                       !- Heating Maximum Air Flow Fraction
  ,                                       !- Design Zone Air Distribution Effectiveness in Cooling Mode
  ,                                       !- Design Zone Air Distribution Effectiveness in Heating Mode
  No,                                     !- Account for Dedicated Outdoor Air System
  NeutralSupplyAir,                       !- Dedicated Outdoor Air System Control Strategy
  autosize,                               !- Dedicated Outdoor Air Low Setpoint Temperature for Design {C}
  autosize;                               !- Dedicated Outdoor Air High Setpoint Temperature for Design {C}

OS:ZoneHVAC:EquipmentList,
  {6dc00f14-9b17-4fa6-be53-1cd69c2ea39d}, !- Handle
  Zone HVAC Equipment List 1,             !- Name
  {77463416-50f2-409b-a86d-e91b1558f541}, !- Thermal Zone
  SequentialLoad,                         !- Load Distribution Scheme
  {3d1cf635-2c96-463d-9a7c-f74a137a9bae}, !- Zone Equipment 1
  2,                                      !- Zone Equipment Cooling Sequence 1
  2,                                      !- Zone Equipment Heating or No-Load Sequence 1
  ,                                       !- Zone Equipment Sequential Cooling Fraction Schedule Name 1
  ,                                       !- Zone Equipment Sequential Heating Fraction Schedule Name 1
  {ba8a15c7-f883-48eb-a4c0-72214c5dcdd8}, !- Zone Equipment 2
  1,                                      !- Zone Equipment Cooling Sequence 2
  1,                                      !- Zone Equipment Heating or No-Load Sequence 2
  ,                                       !- Zone Equipment Sequential Cooling Fraction Schedule Name 2
  ;                                       !- Zone Equipment Sequential Heating Fraction Schedule Name 2

OS:Space,
  {3348e60b-842b-44c8-ad7a-10815b86d9b2}, !- Handle
  living space,                           !- Name
  {6107f29a-6e38-4dee-902f-f995ef2f76e6}, !- Space Type Name
  ,                                       !- Default Construction Set Name
  ,                                       !- Default Schedule Set Name
  ,                                       !- Direction of Relative North {deg}
  ,                                       !- X Origin {m}
  ,                                       !- Y Origin {m}
  ,                                       !- Z Origin {m}
  ,                                       !- Building Story Name
  {77463416-50f2-409b-a86d-e91b1558f541}, !- Thermal Zone Name
  ,                                       !- Part of Total Floor Area
  ,                                       !- Design Specification Outdoor Air Object Name
  {c0408b65-500f-4418-8856-4604bc5d80a5}; !- Building Unit Name

OS:Surface,
  {801e8023-8e73-4333-8e66-cc1e706e554d}, !- Handle
  Surface 1,                              !- Name
  Floor,                                  !- Surface Type
  {1a6d8811-34fe-4921-b3ce-28ae600fce0e}, !- Construction Name
  {3348e60b-842b-44c8-ad7a-10815b86d9b2}, !- Space Name
  Surface,                                !- Outside Boundary Condition
  {e13a8a78-4b01-4037-810a-deace977a7d0}, !- Outside Boundary Condition Object
  NoSun,                                  !- Sun Exposure
  NoWind,                                 !- Wind Exposure
  ,                                       !- View Factor to Ground
  ,                                       !- Number of Vertices
  0, -5.27929086146994, 0,                !- X,Y,Z Vertex 1 {m}
  0, 0, 0,                                !- X,Y,Z Vertex 2 {m}
  2.9329393674833, 0, 0,                  !- X,Y,Z Vertex 3 {m}
  2.9329393674833, -5.27929086146994, 0;  !- X,Y,Z Vertex 4 {m}

OS:Surface,
  {a78aa91f-7c36-4d59-b169-a599edd70f69}, !- Handle
  Surface 2,                              !- Name
  Wall,                                   !- Surface Type
  {0fa80cc3-29f8-42c5-bb46-193ede1de578}, !- Construction Name
  {3348e60b-842b-44c8-ad7a-10815b86d9b2}, !- Space Name
  Outdoors,                               !- Outside Boundary Condition
  ,                                       !- Outside Boundary Condition Object
  SunExposed,                             !- Sun Exposure
  WindExposed,                            !- Wind Exposure
  ,                                       !- View Factor to Ground
  ,                                       !- Number of Vertices
  0, 0, 2.4384,                           !- X,Y,Z Vertex 1 {m}
  0, 0, 0,                                !- X,Y,Z Vertex 2 {m}
  0, -5.27929086146994, 0,                !- X,Y,Z Vertex 3 {m}
  0, -5.27929086146994, 2.4384;           !- X,Y,Z Vertex 4 {m}

OS:Surface,
  {6b402d46-3b60-4391-94cb-097210866c85}, !- Handle
  Surface 3,                              !- Name
  Wall,                                   !- Surface Type
  {0fa80cc3-29f8-42c5-bb46-193ede1de578}, !- Construction Name
  {3348e60b-842b-44c8-ad7a-10815b86d9b2}, !- Space Name
  Outdoors,                               !- Outside Boundary Condition
  ,                                       !- Outside Boundary Condition Object
  SunExposed,                             !- Sun Exposure
  WindExposed,                            !- Wind Exposure
  ,                                       !- View Factor to Ground
  ,                                       !- Number of Vertices
  2.9329393674833, 0, 2.4384,             !- X,Y,Z Vertex 1 {m}
  2.9329393674833, 0, 0,                  !- X,Y,Z Vertex 2 {m}
  0, 0, 0,                                !- X,Y,Z Vertex 3 {m}
  0, 0, 2.4384;                           !- X,Y,Z Vertex 4 {m}

OS:Surface,
  {8558d47c-b8ab-49ff-9514-ffff4e921d80}, !- Handle
  Surface 4,                              !- Name
  Wall,                                   !- Surface Type
  {4275ad63-cb4f-46a9-bcad-fa69299992be}, !- Construction Name
  {3348e60b-842b-44c8-ad7a-10815b86d9b2}, !- Space Name
  Surface,                                !- Outside Boundary Condition
  {b33e87b0-00fc-4d6b-b813-fb6d3cefa72f}, !- Outside Boundary Condition Object
  NoSun,                                  !- Sun Exposure
  NoWind,                                 !- Wind Exposure
  ,                                       !- View Factor to Ground
  ,                                       !- Number of Vertices
  2.9329393674833, -5.27929086146994, 2.4384, !- X,Y,Z Vertex 1 {m}
  2.9329393674833, -5.27929086146994, 0,  !- X,Y,Z Vertex 2 {m}
  2.9329393674833, 0, 0,                  !- X,Y,Z Vertex 3 {m}
  2.9329393674833, 0, 2.4384;             !- X,Y,Z Vertex 4 {m}

OS:Surface,
  {ea3e1db6-eddd-4c26-970e-ed724d535ea1}, !- Handle
  Surface 5,                              !- Name
  Wall,                                   !- Surface Type
  {0fa80cc3-29f8-42c5-bb46-193ede1de578}, !- Construction Name
  {3348e60b-842b-44c8-ad7a-10815b86d9b2}, !- Space Name
  Outdoors,                               !- Outside Boundary Condition
  ,                                       !- Outside Boundary Condition Object
  SunExposed,                             !- Sun Exposure
  WindExposed,                            !- Wind Exposure
  ,                                       !- View Factor to Ground
  ,                                       !- Number of Vertices
  2.9329393674833, -5.27929086146994, 0,  !- X,Y,Z Vertex 1 {m}
  2.9329393674833, -5.27929086146994, 2.4384, !- X,Y,Z Vertex 2 {m}
  1.04865714285714, -5.27929086146994, 2.4384, !- X,Y,Z Vertex 3 {m}
  1.04865714285714, -5.27929086146994, 0; !- X,Y,Z Vertex 4 {m}

OS:Surface,
  {ecf9a8ce-a6a5-4a45-be5b-61b0f8265024}, !- Handle
  Surface 6,                              !- Name
  RoofCeiling,                            !- Surface Type
  {826569ee-629d-43e1-a7fc-0ea68c9e04fc}, !- Construction Name
  {3348e60b-842b-44c8-ad7a-10815b86d9b2}, !- Space Name
  Surface,                                !- Outside Boundary Condition
  {ec46b6c5-86d5-451b-ab3f-a7f548bc7c41}, !- Outside Boundary Condition Object
  NoSun,                                  !- Sun Exposure
  NoWind,                                 !- Wind Exposure
  ,                                       !- View Factor to Ground
  ,                                       !- Number of Vertices
  2.9329393674833, -5.27929086146994, 2.4384, !- X,Y,Z Vertex 1 {m}
  2.9329393674833, 0, 2.4384,             !- X,Y,Z Vertex 2 {m}
  0, 0, 2.4384,                           !- X,Y,Z Vertex 3 {m}
  0, -5.27929086146994, 2.4384;           !- X,Y,Z Vertex 4 {m}

OS:SpaceType,
  {6107f29a-6e38-4dee-902f-f995ef2f76e6}, !- Handle
  Space Type 1,                           !- Name
  ,                                       !- Default Construction Set Name
  ,                                       !- Default Schedule Set Name
  ,                                       !- Group Rendering Name
  ,                                       !- Design Specification Outdoor Air Object Name
  ,                                       !- Standards Template
  ,                                       !- Standards Building Type
  living;                                 !- Standards Space Type

OS:Space,
  {b42ffd8a-3115-4732-81e4-eb5cdb8f0eec}, !- Handle
  living space|story 2,                   !- Name
  {6107f29a-6e38-4dee-902f-f995ef2f76e6}, !- Space Type Name
  ,                                       !- Default Construction Set Name
  ,                                       !- Default Schedule Set Name
  -0,                                     !- Direction of Relative North {deg}
  0,                                      !- X Origin {m}
  0,                                      !- Y Origin {m}
  2.4384,                                 !- Z Origin {m}
  ,                                       !- Building Story Name
  {77463416-50f2-409b-a86d-e91b1558f541}, !- Thermal Zone Name
  ,                                       !- Part of Total Floor Area