!- NOTE: Auto-generated from /test/osw_files/SFA_4units_1story_FB_UA_3Beds_2Baths_Denver_WHTank_ClothesWasher.osw

OS:Version,
  {566643c2-6c1e-4ec0-a8e8-a4c646691d51}, !- Handle
  2.8.0;                                  !- Version Identifier

OS:SimulationControl,
  {90e10842-e2d2-4159-92a7-44a602ce650d}, !- Handle
  ,                                       !- Do Zone Sizing Calculation
  ,                                       !- Do System Sizing Calculation
  ,                                       !- Do Plant Sizing Calculation
  No;                                     !- Run Simulation for Sizing Periods

OS:Timestep,
  {6ed0b383-7831-4cc2-b7cc-107129062417}, !- Handle
  6;                                      !- Number of Timesteps per Hour

OS:ShadowCalculation,
  {4bc81ef4-f3ba-471d-bd3d-f165dd297051}, !- Handle
  20,                                     !- Calculation Frequency
  200;                                    !- Maximum Figures in Shadow Overlap Calculations

OS:SurfaceConvectionAlgorithm:Outside,
  {c89c7de9-e461-4564-9606-5a8653fd5d26}, !- Handle
  DOE-2;                                  !- Algorithm

OS:SurfaceConvectionAlgorithm:Inside,
  {31b6b2d4-894e-4201-815e-346a83cd8233}, !- Handle
  TARP;                                   !- Algorithm

OS:ZoneCapacitanceMultiplier:ResearchSpecial,
  {692e34b9-f568-4c69-95d8-ddce2e97fe43}, !- Handle
  ,                                       !- Temperature Capacity Multiplier
  15,                                     !- Humidity Capacity Multiplier
  ;                                       !- Carbon Dioxide Capacity Multiplier

OS:RunPeriod,
  {5b55c14c-3016-466f-8e08-ff538579a023}, !- Handle
  Run Period 1,                           !- Name
  1,                                      !- Begin Month
  1,                                      !- Begin Day of Month
  12,                                     !- End Month
  31,                                     !- End Day of Month
  ,                                       !- Use Weather File Holidays and Special Days
  ,                                       !- Use Weather File Daylight Saving Period
  ,                                       !- Apply Weekend Holiday Rule
  ,                                       !- Use Weather File Rain Indicators
  ,                                       !- Use Weather File Snow Indicators
  ;                                       !- Number of Times Runperiod to be Repeated

OS:ThermalZone,
  {74be9959-ba8b-490e-afe5-e1531cf95ac9}, !- Handle
  living zone,                            !- Name
  ,                                       !- Multiplier
  ,                                       !- Ceiling Height {m}
  ,                                       !- Volume {m3}
  ,                                       !- Floor Area {m2}
  ,                                       !- Zone Inside Convection Algorithm
  ,                                       !- Zone Outside Convection Algorithm
  ,                                       !- Zone Conditioning Equipment List Name
  {8dbf6aec-50ad-444d-9dce-2450653f7d07}, !- Zone Air Inlet Port List
  {fb1b1242-f4d9-44d3-a549-e4f49a090b40}, !- Zone Air Exhaust Port List
  {ec70fe43-5956-4bd8-868b-abf70f30b517}, !- Zone Air Node Name
  {dbf5f546-11d5-44f5-99a1-3baabac6afee}, !- Zone Return Air Port List
  ,                                       !- Primary Daylighting Control Name
  ,                                       !- Fraction of Zone Controlled by Primary Daylighting Control
  ,                                       !- Secondary Daylighting Control Name
  ,                                       !- Fraction of Zone Controlled by Secondary Daylighting Control
  ,                                       !- Illuminance Map Name
  ,                                       !- Group Rendering Name
  ,                                       !- Thermostat Name
  No;                                     !- Use Ideal Air Loads

OS:Node,
  {bbc1c854-419a-46ed-adc8-49145de5d34d}, !- Handle
  Node 1,                                 !- Name
  {ec70fe43-5956-4bd8-868b-abf70f30b517}, !- Inlet Port
  ;                                       !- Outlet Port

OS:Connection,
  {ec70fe43-5956-4bd8-868b-abf70f30b517}, !- Handle
  {d8656235-019b-4244-96e6-1e663bd27711}, !- Name
  {74be9959-ba8b-490e-afe5-e1531cf95ac9}, !- Source Object
  11,                                     !- Outlet Port
  {bbc1c854-419a-46ed-adc8-49145de5d34d}, !- Target Object
  2;                                      !- Inlet Port

OS:PortList,
  {8dbf6aec-50ad-444d-9dce-2450653f7d07}, !- Handle
  {8e7902cc-0dc3-4bd6-87f5-acaa96e29bb9}, !- Name
  {74be9959-ba8b-490e-afe5-e1531cf95ac9}; !- HVAC Component

OS:PortList,
  {fb1b1242-f4d9-44d3-a549-e4f49a090b40}, !- Handle
  {8c824f84-a0f1-4558-b946-ba8f5a332c9b}, !- Name
  {74be9959-ba8b-490e-afe5-e1531cf95ac9}; !- HVAC Component

OS:PortList,
  {dbf5f546-11d5-44f5-99a1-3baabac6afee}, !- Handle
  {635b0652-464c-44d0-93fe-da38155d2e31}, !- Name
  {74be9959-ba8b-490e-afe5-e1531cf95ac9}; !- HVAC Component

OS:Sizing:Zone,
  {0195057e-1d29-403f-a350-e9fe35d80779}, !- Handle
  {74be9959-ba8b-490e-afe5-e1531cf95ac9}, !- Zone or ZoneList Name
  SupplyAirTemperature,                   !- Zone Cooling Design Supply Air Temperature Input Method
  14,                                     !- Zone Cooling Design Supply Air Temperature {C}
  11.11,                                  !- Zone Cooling Design Supply Air Temperature Difference {deltaC}
  SupplyAirTemperature,                   !- Zone Heating Design Supply Air Temperature Input Method
  40,                                     !- Zone Heating Design Supply Air Temperature {C}
  11.11,                                  !- Zone Heating Design Supply Air Temperature Difference {deltaC}
  0.0085,                                 !- Zone Cooling Design Supply Air Humidity Ratio {kg-H2O/kg-air}
  0.008,                                  !- Zone Heating Design Supply Air Humidity Ratio {kg-H2O/kg-air}
  ,                                       !- Zone Heating Sizing Factor
  ,                                       !- Zone Cooling Sizing Factor
  DesignDay,                              !- Cooling Design Air Flow Method
  ,                                       !- Cooling Design Air Flow Rate {m3/s}
  ,                                       !- Cooling Minimum Air Flow per Zone Floor Area {m3/s-m2}
  ,                                       !- Cooling Minimum Air Flow {m3/s}
  ,                                       !- Cooling Minimum Air Flow Fraction
  DesignDay,                              !- Heating Design Air Flow Method
  ,                                       !- Heating Design Air Flow Rate {m3/s}
  ,                                       !- Heating Maximum Air Flow per Zone Floor Area {m3/s-m2}
  ,                                       !- Heating Maximum Air Flow {m3/s}
  ,                                       !- Heating Maximum Air Flow Fraction
  ,                                       !- Design Zone Air Distribution Effectiveness in Cooling Mode
  ,                                       !- Design Zone Air Distribution Effectiveness in Heating Mode
  No,                                     !- Account for Dedicated Outdoor Air System
  NeutralSupplyAir,                       !- Dedicated Outdoor Air System Control Strategy
  autosize,                               !- Dedicated Outdoor Air Low Setpoint Temperature for Design {C}
  autosize;                               !- Dedicated Outdoor Air High Setpoint Temperature for Design {C}

OS:ZoneHVAC:EquipmentList,
  {28a9a1ea-b311-4192-ad18-4eadadb42cfc}, !- Handle
  Zone HVAC Equipment List 1,             !- Name
  {74be9959-ba8b-490e-afe5-e1531cf95ac9}; !- Thermal Zone

OS:Space,
  {5d77691a-7848-438a-b5ed-b95f268dedfd}, !- Handle
  living space,                           !- Name
  {29432a26-2e43-4125-b53e-3372d692058e}, !- Space Type Name
  ,                                       !- Default Construction Set Name
  ,                                       !- Default Schedule Set Name
  ,                                       !- Direction of Relative North {deg}
  ,                                       !- X Origin {m}
  ,                                       !- Y Origin {m}
  ,                                       !- Z Origin {m}
  ,                                       !- Building Story Name
  {74be9959-ba8b-490e-afe5-e1531cf95ac9}, !- Thermal Zone Name
  ,                                       !- Part of Total Floor Area
  ,                                       !- Design Specification Outdoor Air Object Name
  {7856f18a-a527-403c-8e89-d81cf2b50d48}; !- Building Unit Name

OS:Surface,
  {dcd9866e-8f60-4d84-bbe1-376f72af5d79}, !- Handle
  Surface 1,                              !- Name
  Floor,                                  !- Surface Type
  ,                                       !- Construction Name
  {5d77691a-7848-438a-b5ed-b95f268dedfd}, !- Space Name
  Surface,                                !- Outside Boundary Condition
  {15e5e546-5deb-406d-84fc-063f17d1e299}, !- Outside Boundary Condition Object
  NoSun,                                  !- Sun Exposure
  NoWind,                                 !- Wind Exposure
  ,                                       !- View Factor to Ground
  ,                                       !- Number of Vertices
  0, -9.144, 0,                           !- X,Y,Z Vertex 1 {m}
  0, 0, 0,                                !- X,Y,Z Vertex 2 {m}
  4.572, 0, 0,                            !- X,Y,Z Vertex 3 {m}
  4.572, -9.144, 0;                       !- X,Y,Z Vertex 4 {m}

OS:Surface,
  {2e296813-cef5-4398-a940-0991a209f4cb}, !- Handle
  Surface 2,                              !- Name
  Wall,                                   !- Surface Type
  ,                                       !- Construction Name
  {5d77691a-7848-438a-b5ed-b95f268dedfd}, !- Space Name
  Outdoors,                               !- Outside Boundary Condition
  ,                                       !- Outside Boundary Condition Object
  SunExposed,                             !- Sun Exposure
  WindExposed,                            !- Wind Exposure
  ,                                       !- View Factor to Ground
  ,                                       !- Number of Vertices
  0, 0, 2.4384,                           !- X,Y,Z Vertex 1 {m}
  0, 0, 0,                                !- X,Y,Z Vertex 2 {m}
  0, -9.144, 0,                           !- X,Y,Z Vertex 3 {m}
  0, -9.144, 2.4384;                      !- X,Y,Z Vertex 4 {m}

OS:Surface,
  {0907784c-a31c-494c-850f-f21e2ca7addb}, !- Handle
  Surface 3,                              !- Name
  Wall,                                   !- Surface Type
  ,                                       !- Construction Name
  {5d77691a-7848-438a-b5ed-b95f268dedfd}, !- Space Name
  Outdoors,                               !- Outside Boundary Condition
  ,                                       !- Outside Boundary Condition Object
  SunExposed,                             !- Sun Exposure
  WindExposed,                            !- Wind Exposure
  ,                                       !- View Factor to Ground
  ,                                       !- Number of Vertices
  4.572, 0, 2.4384,                       !- X,Y,Z Vertex 1 {m}
  4.572, 0, 0,                            !- X,Y,Z Vertex 2 {m}
  0, 0, 0,                                !- X,Y,Z Vertex 3 {m}
  0, 0, 2.4384;                           !- X,Y,Z Vertex 4 {m}

OS:Surface,
  {eb669ead-eeaa-45d9-82f3-9183a6c645e8}, !- Handle
  Surface 4,                              !- Name
  Wall,                                   !- Surface Type
  ,                                       !- Construction Name
  {5d77691a-7848-438a-b5ed-b95f268dedfd}, !- Space Name
  Surface,                                !- Outside Boundary Condition
  {c532652e-5eca-4025-a1f1-39b9bddace79}, !- Outside Boundary Condition Object
  NoSun,                                  !- Sun Exposure
  NoWind,                                 !- Wind Exposure
  ,                                       !- View Factor to Ground
  ,                                       !- Number of Vertices
  4.572, -9.144, 2.4384,                  !- X,Y,Z Vertex 1 {m}
  4.572, -9.144, 0,                       !- X,Y,Z Vertex 2 {m}
  4.572, 0, 0,                            !- X,Y,Z Vertex 3 {m}
  4.572, 0, 2.4384;                       !- X,Y,Z Vertex 4 {m}

OS:Surface,
  {1dea0b03-bf7a-4c4f-88e1-c4474efed40e}, !- Handle
  Surface 5,                              !- Name
  Wall,                                   !- Surface Type
  ,                                       !- Construction Name
  {5d77691a-7848-438a-b5ed-b95f268dedfd}, !- Space Name
  Outdoors,                               !- Outside Boundary Condition
  ,                                       !- Outside Boundary Condition Object
  SunExposed,                             !- Sun Exposure
  WindExposed,                            !- Wind Exposure
  ,                                       !- View Factor to Ground
  ,                                       !- Number of Vertices
  0, -9.144, 2.4384,                      !- X,Y,Z Vertex 1 {m}
  0, -9.144, 0,                           !- X,Y,Z Vertex 2 {m}
  4.572, -9.144, 0,                       !- X,Y,Z Vertex 3 {m}
  4.572, -9.144, 2.4384;                  !- X,Y,Z Vertex 4 {m}

OS:Surface,
  {fcf131f2-b127-4939-95c2-a2275aefe246}, !- Handle
  Surface 6,                              !- Name
  RoofCeiling,                            !- Surface Type
  ,                                       !- Construction Name
  {5d77691a-7848-438a-b5ed-b95f268dedfd}, !- Space Name
  Surface,                                !- Outside Boundary Condition
  {19527295-3ce5-4e6b-8a34-b2bc995407f0}, !- Outside Boundary Condition Object
  NoSun,                                  !- Sun Exposure
  NoWind,                                 !- Wind Exposure
  ,                                       !- View Factor to Ground
  ,                                       !- Number of Vertices
  4.572, -9.144, 2.4384,                  !- X,Y,Z Vertex 1 {m}
  4.572, 0, 2.4384,                       !- X,Y,Z Vertex 2 {m}
  0, 0, 2.4384,                           !- X,Y,Z Vertex 3 {m}
  0, -9.144, 2.4384;                      !- X,Y,Z Vertex 4 {m}

OS:SpaceType,
  {29432a26-2e43-4125-b53e-3372d692058e}, !- Handle
  Space Type 1,                           !- Name
  ,                                       !- Default Construction Set Name
  ,                                       !- Default Schedule Set Name
  ,                                       !- Group Rendering Name
  ,                                       !- Design Specification Outdoor Air Object Name
  ,                                       !- Standards Template
  ,                                       !- Standards Building Type
  living;                                 !- Standards Space Type

OS:ThermalZone,
  {8754e3ea-d78c-45db-8fd9-87884d218e4a}, !- Handle
  living zone|unit 2,                     !- Name
  ,                                       !- Multiplier
  ,                                       !- Ceiling Height {m}
  ,                                       !- Volume {m3}
  ,                                       !- Floor Area {m2}
  ,                                       !- Zone Inside Convection Algorithm
  ,                                       !- Zone Outside Convection Algorithm
  ,                                       !- Zone Conditioning Equipment List Name
  {0d2e5fa7-39d3-43cd-b9ac-96c3b9b79dc9}, !- Zone Air Inlet Port List
  {a8ad056c-47b7-42c7-8aae-15539f794b4d}, !- Zone Air Exhaust Port List
  {64650a69-ae64-450d-8041-b01580c4a722}, !- Zone Air Node Name
  {6b218944-bfdc-4738-b7da-17b00686eb53}, !- Zone Return Air Port List
  ,                                       !- Primary Daylighting Control Name
  ,                                       !- Fraction of Zone Controlled by Primary Daylighting Control
  ,                                       !- Secondary Daylighting Control Name
  ,                                       !- Fraction of Zone Controlled by Secondary Daylighting Control
  ,                                       !- Illuminance Map Name
  ,                                       !- Group Rendering Name
  ,                                       !- Thermostat Name
  No;                                     !- Use Ideal Air Loads

OS:Node,
  {48e87030-fb4f-44ba-a9d8-eb8d0c9c9d23}, !- Handle
  Node 2,                                 !- Name
  {64650a69-ae64-450d-8041-b01580c4a722}, !- Inlet Port
  ;                                       !- Outlet Port

OS:Connection,
  {64650a69-ae64-450d-8041-b01580c4a722}, !- Handle
  {d5f77b3e-242e-4fab-b3b5-a5606c57c703}, !- Name
  {8754e3ea-d78c-45db-8fd9-87884d218e4a}, !- Source Object
  11,                                     !- Outlet Port
  {48e87030-fb4f-44ba-a9d8-eb8d0c9c9d23}, !- Target Object
  2;                                      !- Inlet Port

OS:PortList,
  {0d2e5fa7-39d3-43cd-b9ac-96c3b9b79dc9}, !- Handle
  {10204b72-f303-4560-b50a-db962e0e9aff}, !- Name
  {8754e3ea-d78c-45db-8fd9-87884d218e4a}; !- HVAC Component

OS:PortList,
  {a8ad056c-47b7-42c7-8aae-15539f794b4d}, !- Handle
  {7cee11a2-ba1b-4060-a4c4-202a92676612}, !- Name
  {8754e3ea-d78c-45db-8fd9-87884d218e4a}; !- HVAC Component

OS:PortList,
  {6b218944-bfdc-4738-b7da-17b00686eb53}, !- Handle
  {6c2bfeb2-8710-4265-b1ed-a8daa4f440e9}, !- Name
  {8754e3ea-d78c-45db-8fd9-87884d218e4a}; !- HVAC Component

OS:Sizing:Zone,
  {ddd34888-5431-4be4-9552-0ca911bfe532}, !- Handle
  {8754e3ea-d78c-45db-8fd9-87884d218e4a}, !- Zone or ZoneList Name
  SupplyAirTemperature,                   !- Zone Cooling Design Supply Air Temperature Input Method
  14,                                     !- Zone Cooling Design Supply Air Temperature {C}
  11.11,                                  !- Zone Cooling Design Supply Air Temperature Difference {deltaC}
  SupplyAirTemperature,                   !- Zone Heating Design Supply Air Temperature Input Method
  40,                                     !- Zone Heating Design Supply Air Temperature {C}
  11.11,                                  !- Zone Heating Design Supply Air Temperature Difference {deltaC}
  0.0085,                                 !- Zone Cooling Design Supply Air Humidity Ratio {kg-H2O/kg-air}
  0.008,                                  !- Zone Heating Design Supply Air Humidity Ratio {kg-H2O/kg-air}
  ,                                       !- Zone Heating Sizing Factor
  ,                                       !- Zone Cooling Sizing Factor
  DesignDay,                              !- Cooling Design Air Flow Method
  ,                                       !- Cooling Design Air Flow Rate {m3/s}
  ,                                       !- Cooling Minimum Air Flow per Zone Floor Area {m3/s-m2}
  ,                                       !- Cooling Minimum Air Flow {m3/s}
  ,                                       !- Cooling Minimum Air Flow Fraction
  DesignDay,                              !- Heating Design Air Flow Method
  ,                                       !- Heating Design Air Flow Rate {m3/s}
  ,                                       !- Heating Maximum Air Flow per Zone Floor Area {m3/s-m2}
  ,                                       !- Heating Maximum Air Flow {m3/s}
  ,                                       !- Heating Maximum Air Flow Fraction
  ,                                       !- Design Zone Air Distribution Effectiveness in Cooling Mode
  ,                                       !- Design Zone Air Distribution Effectiveness in Heating Mode
  No,                                     !- Account for Dedicated Outdoor Air System
  NeutralSupplyAir,                       !- Dedicated Outdoor Air System Control Strategy
  autosize,                               !- Dedicated Outdoor Air Low Setpoint Temperature for Design {C}
  autosize;                               !- Dedicated Outdoor Air High Setpoint Temperature for Design {C}

OS:ZoneHVAC:EquipmentList,
  {bf2bc2a3-16be-4530-8c88-0dbc71799148}, !- Handle
  Zone HVAC Equipment List 2,             !- Name
  {8754e3ea-d78c-45db-8fd9-87884d218e4a}; !- Thermal Zone

OS:Space,
  {52c0cc89-f0f3-415e-b867-7616ae90719b}, !- Handle
  living space|unit 2|story 1,            !- Name
  {29432a26-2e43-4125-b53e-3372d692058e}, !- Space Type Name
  ,                                       !- Default Construction Set Name
  ,                                       !- Default Schedule Set Name
  -0,                                     !- Direction of Relative North {deg}
  0,                                      !- X Origin {m}
  0,                                      !- Y Origin {m}
  0,                                      !- Z Origin {m}
  ,                                       !- Building Story Name
  {8754e3ea-d78c-45db-8fd9-87884d218e4a}, !- Thermal Zone Name
  ,                                       !- Part of Total Floor Area
  ,                                       !- Design Specification Outdoor Air Object Name
  {6d4eb706-d278-4ad8-9880-9627cab6c487}; !- Building Unit Name

OS:Surface,
  {c532652e-5eca-4025-a1f1-39b9bddace79}, !- Handle
  Surface 12,                             !- Name
  Wall,                                   !- Surface Type
  ,                                       !- Construction Name
  {52c0cc89-f0f3-415e-b867-7616ae90719b}, !- Space Name
  Surface,                                !- Outside Boundary Condition
  {eb669ead-eeaa-45d9-82f3-9183a6c645e8}, !- Outside Boundary Condition Object
  NoSun,                                  !- Sun Exposure
  NoWind,                                 !- Wind Exposure
  ,                                       !- View Factor to Ground
  ,                                       !- Number of Vertices
  4.572, 0, 2.4384,                       !- X,Y,Z Vertex 1 {m}
  4.572, 0, 0,                            !- X,Y,Z Vertex 2 {m}
  4.572, -9.144, 0,                       !- X,Y,Z Vertex 3 {m}
  4.572, -9.144, 2.4384;                  !- X,Y,Z Vertex 4 {m}

OS:Surface,
  {7aff66b0-1dec-476f-8c44-c28d3d906240}, !- Handle
  Surface 13,                             !- Name
  Wall,                                   !- Surface Type
  ,                                       !- Construction Name
  {52c0cc89-f0f3-415e-b867-7616ae90719b}, !- Space Name
  Outdoors,                               !- Outside Boundary Condition
  ,                                       !- Outside Boundary Condition Object
  SunExposed,                             !- Sun Exposure
  WindExposed,                            !- Wind Exposure
  ,                                       !- View Factor to Ground
  ,                                       !- Number of Vertices
  9.144, 0, 2.4384,                       !- X,Y,Z Vertex 1 {m}
  9.144, 0, 0,                            !- X,Y,Z Vertex 2 {m}
  4.572, 0, 0,                            !- X,Y,Z Vertex 3 {m}
  4.572, 0, 2.4384;                       !- X,Y,Z Vertex 4 {m}

OS:Surface,
  {b65f6317-ec5c-4a82-bebf-d57927bda134}, !- Handle
  Surface 14,                             !- Name
  Floor,                                  !- Surface Type
  ,                                       !- Construction Name
  {52c0cc89-f0f3-415e-b867-7616ae90719b}, !- Space Name
  Surface,                                !- Outside Boundary Condition
  {cd28a688-6765-4a4e-8826-ef4eb3f9ad96}, !- Outside Boundary Condition Object
  NoSun,                                  !- Sun Exposure
  NoWind,                                 !- Wind Exposure
  ,                                       !- View Factor to Ground
  ,                                       !- Number of Vertices
  4.572, -9.144, 0,                       !- X,Y,Z Vertex 1 {m}
  4.572, 0, 0,                            !- X,Y,Z Vertex 2 {m}
  9.144, 0, 0,                            !- X,Y,Z Vertex 3 {m}
  9.144, -9.144, 0;                       !- X,Y,Z Vertex 4 {m}

OS:Surface,
  {aba1e77a-40d4-48b2-9dec-aa348912836b}, !- Handle
  Surface 15,                             !- Name
  Wall,                                   !- Surface Type
  ,                                       !- Construction Name
  {52c0cc89-f0f3-415e-b867-7616ae90719b}, !- Space Name
  Outdoors,                               !- Outside Boundary Condition
  ,                                       !- Outside Boundary Condition Object
  SunExposed,                             !- Sun Exposure
  WindExposed,                            !- Wind Exposure
  ,                                       !- View Factor to Ground
  ,                                       !- Number of Vertices
  4.572, -9.144, 2.4384,                  !- X,Y,Z Vertex 1 {m}
  4.572, -9.144, 0,                       !- X,Y,Z Vertex 2 {m}
  9.144, -9.144, 0,                       !- X,Y,Z Vertex 3 {m}
  9.144, -9.144, 2.4384;                  !- X,Y,Z Vertex 4 {m}

OS:Surface,
  {629a64bb-99c8-48b3-b0ea-8c9fe1a5d5a9}, !- Handle
  Surface 16,                             !- Name
  Wall,                                   !- Surface Type
  ,                                       !- Construction Name
  {52c0cc89-f0f3-415e-b867-7616ae90719b}, !- Space Name
  Surface,                                !- Outside Boundary Condition
  {8e03b2be-b6aa-457c-a0ee-f2b1b735a143}, !- Outside Boundary Condition Object
  NoSun,                                  !- Sun Exposure
  NoWind,                                 !- Wind Exposure
  ,                                       !- View Factor to Ground
  ,                                       !- Number of Vertices
  9.144, -9.144, 2.4384,                  !- X,Y,Z Vertex 1 {m}
  9.144, -9.144, 0,                       !- X,Y,Z Vertex 2 {m}
  9.144, 0, 0,                            !- X,Y,Z Vertex 3 {m}
  9.144, 0, 2.4384;                       !- X,Y,Z Vertex 4 {m}

OS:Surface,
  {1a2b2f5c-e688-4236-b580-fd4bcd1e94ef}, !- Handle
  Surface 17,                             !- Name
  RoofCeiling,                            !- Surface Type
  ,                                       !- Construction Name
  {52c0cc89-f0f3-415e-b867-7616ae90719b}, !- Space Name
  Surface,                                !- Outside Boundary Condition
  {eaf4ec21-b27d-4a7d-b125-acd370137fd1}, !- Outside Boundary Condition Object
  NoSun,                                  !- Sun Exposure
  NoWind,                                 !- Wind Exposure
  ,                                       !- View Factor to Ground
  ,                                       !- Number of Vertices
  9.144, -9.144, 2.4384,                  !- X,Y,Z Vertex 1 {m}
  9.144, 0, 2.4384,                       !- X,Y,Z Vertex 2 {m}
  4.572, 0, 2.4384,                       !- X,Y,Z Vertex 3 {m}
  4.572, -9.144, 2.4384;                  !- X,Y,Z Vertex 4 {m}

OS:ThermalZone,
  {094f7964-3da6-43de-b711-a2d3da28aace}, !- Handle
  living zone|unit 3,                     !- Name
  ,                                       !- Multiplier
  ,                                       !- Ceiling Height {m}
  ,                                       !- Volume {m3}
  ,                                       !- Floor Area {m2}
  ,                                       !- Zone Inside Convection Algorithm
  ,                                       !- Zone Outside Convection Algorithm
  ,                                       !- Zone Conditioning Equipment List Name
  {744b7b35-43b0-4c41-ad8d-4820fb2be4ed}, !- Zone Air Inlet Port List
  {28fe6335-836e-46da-b347-895478e53cf2}, !- Zone Air Exhaust Port List
  {f2626125-cca3-4691-88ab-b539a42d8435}, !- Zone Air Node Name
  {5556fcd1-bece-47dc-b80f-626a922ef2d1}, !- Zone Return Air Port List
  ,                                       !- Primary Daylighting Control Name
  ,                                       !- Fraction of Zone Controlled by Primary Daylighting Control
  ,                                       !- Secondary Daylighting Control Name
  ,                                       !- Fraction of Zone Controlled by Secondary Daylighting Control
  ,                                       !- Illuminance Map Name
  ,                                       !- Group Rendering Name
  ,                                       !- Thermostat Name
  No;                                     !- Use Ideal Air Loads

OS:Node,
  {1950a5c6-ba35-4877-b240-c8f1ce666be0}, !- Handle
  Node 3,                                 !- Name
  {f2626125-cca3-4691-88ab-b539a42d8435}, !- Inlet Port
  ;                                       !- Outlet Port

OS:Connection,
  {f2626125-cca3-4691-88ab-b539a42d8435}, !- Handle
  {e2769f63-d29b-4b2b-9277-e179615fb215}, !- Name
  {094f7964-3da6-43de-b711-a2d3da28aace}, !- Source Object
  11,                                     !- Outlet Port
  {1950a5c6-ba35-4877-b240-c8f1ce666be0}, !- Target Object
  2;                                      !- Inlet Port

OS:PortList,
  {744b7b35-43b0-4c41-ad8d-4820fb2be4ed}, !- Handle
  {bccc209c-916e-4d8c-9d1b-f0b0299b2d9a}, !- Name
  {094f7964-3da6-43de-b711-a2d3da28aace}; !- HVAC Component

OS:PortList,
  {28fe6335-836e-46da-b347-895478e53cf2}, !- Handle
  {10bb05ae-3c14-47d7-b8d3-d37e47d80fad}, !- Name
  {094f7964-3da6-43de-b711-a2d3da28aace}; !- HVAC Component

OS:PortList,
  {5556fcd1-bece-47dc-b80f-626a922ef2d1}, !- Handle
  {d87d093c-0014-4c39-b78f-875c374ab740}, !- Name
  {094f7964-3da6-43de-b711-a2d3da28aace}; !- HVAC Component

OS:Sizing:Zone,
  {ac1c3ecc-cb55-4c77-897c-e992b1e951a5}, !- Handle
  {094f7964-3da6-43de-b711-a2d3da28aace}, !- Zone or ZoneList Name
  SupplyAirTemperature,                   !- Zone Cooling Design Supply Air Temperature Input Method
  14,                                     !- Zone Cooling Design Supply Air Temperature {C}
  11.11,                                  !- Zone Cooling Design Supply Air Temperature Difference {deltaC}