!- NOTE: Auto-generated from /test/osw_files/SFA_4units_1story_SL_UA_3Beds_2Baths_Denver_UnitHeater.osw

OS:Version,
  {8544ac58-7cd3-474c-a0fe-f38829829d1d}, !- Handle
  2.8.0;                                  !- Version Identifier

OS:SimulationControl,
  {3e6d4b55-36d8-4653-bae7-38d050a962f0}, !- Handle
  ,                                       !- Do Zone Sizing Calculation
  ,                                       !- Do System Sizing Calculation
  ,                                       !- Do Plant Sizing Calculation
  No;                                     !- Run Simulation for Sizing Periods

OS:Timestep,
  {d649dc96-e8e7-4608-8ce4-7e8dae26d731}, !- Handle
  6;                                      !- Number of Timesteps per Hour

OS:ShadowCalculation,
  {3d2fb7bb-3659-4505-81ee-d76cc3b4af70}, !- Handle
  20,                                     !- Calculation Frequency
  200;                                    !- Maximum Figures in Shadow Overlap Calculations

OS:SurfaceConvectionAlgorithm:Outside,
  {51f8fef7-30c5-479b-906e-47f6a136d0e2}, !- Handle
  DOE-2;                                  !- Algorithm

OS:SurfaceConvectionAlgorithm:Inside,
  {4849ef27-8d88-4f5a-b4db-482f0183647c}, !- Handle
  TARP;                                   !- Algorithm

OS:ZoneCapacitanceMultiplier:ResearchSpecial,
  {809fd35f-cbfd-439d-a1bd-af770a8f4375}, !- Handle
  ,                                       !- Temperature Capacity Multiplier
  15,                                     !- Humidity Capacity Multiplier
  ;                                       !- Carbon Dioxide Capacity Multiplier

OS:RunPeriod,
  {c4007aab-c87d-44c5-bddf-f92ac21a7f87}, !- Handle
  Run Period 1,                           !- Name
  1,                                      !- Begin Month
  1,                                      !- Begin Day of Month
  12,                                     !- End Month
  31,                                     !- End Day of Month
  ,                                       !- Use Weather File Holidays and Special Days
  ,                                       !- Use Weather File Daylight Saving Period
  ,                                       !- Apply Weekend Holiday Rule
  ,                                       !- Use Weather File Rain Indicators
  ,                                       !- Use Weather File Snow Indicators
  ;                                       !- Number of Times Runperiod to be Repeated

OS:YearDescription,
  {483e7bb0-02fb-4724-801a-ccfe593cadc6}, !- Handle
  2007,                                   !- Calendar Year
  ,                                       !- Day of Week for Start Day
  ;                                       !- Is Leap Year

OS:ThermalZone,
  {1f90167d-1993-42ab-ad39-93bafb5cd1f1}, !- Handle
  living zone,                            !- Name
  ,                                       !- Multiplier
  ,                                       !- Ceiling Height {m}
  ,                                       !- Volume {m3}
  ,                                       !- Floor Area {m2}
  ,                                       !- Zone Inside Convection Algorithm
  ,                                       !- Zone Outside Convection Algorithm
  ,                                       !- Zone Conditioning Equipment List Name
  {0b9d6e84-ebf9-40bd-b6fd-a65b6fd76eba}, !- Zone Air Inlet Port List
  {71dfb1eb-d4bb-44e7-a7b4-29be0b81c58a}, !- Zone Air Exhaust Port List
  {3a42a145-4dc8-45f8-8b19-4bae73809db6}, !- Zone Air Node Name
  {a7dd8ab7-13e8-47fd-94d0-9ab8402398d2}, !- Zone Return Air Port List
  ,                                       !- Primary Daylighting Control Name
  ,                                       !- Fraction of Zone Controlled by Primary Daylighting Control
  ,                                       !- Secondary Daylighting Control Name
  ,                                       !- Fraction of Zone Controlled by Secondary Daylighting Control
  ,                                       !- Illuminance Map Name
  ,                                       !- Group Rendering Name
  {8c2a4ca8-6eb8-48ec-8743-97f501761a54}, !- Thermostat Name
  No;                                     !- Use Ideal Air Loads

OS:Node,
  {7e636a77-768c-4594-8def-ac257dc3c191}, !- Handle
  Node 1,                                 !- Name
  {3a42a145-4dc8-45f8-8b19-4bae73809db6}, !- Inlet Port
  ;                                       !- Outlet Port

OS:Connection,
  {3a42a145-4dc8-45f8-8b19-4bae73809db6}, !- Handle
  {9811e489-accc-408a-a601-a6011e5586c1}, !- Name
  {1f90167d-1993-42ab-ad39-93bafb5cd1f1}, !- Source Object
  11,                                     !- Outlet Port
  {7e636a77-768c-4594-8def-ac257dc3c191}, !- Target Object
  2;                                      !- Inlet Port

OS:PortList,
  {0b9d6e84-ebf9-40bd-b6fd-a65b6fd76eba}, !- Handle
  {9be01875-8aaf-481b-b8c9-afce20ce3ef2}, !- Name
  {1f90167d-1993-42ab-ad39-93bafb5cd1f1}, !- HVAC Component
  {b646e3bf-235d-416d-ae37-cb87a7d58ab8}; !- Port 1

OS:PortList,
  {71dfb1eb-d4bb-44e7-a7b4-29be0b81c58a}, !- Handle
  {4300c5f2-05e1-4243-a822-8051998ff1ad}, !- Name
  {1f90167d-1993-42ab-ad39-93bafb5cd1f1}, !- HVAC Component
  {85fe78c2-1545-46d5-9801-4f1d9dbcad4e}; !- Port 1

OS:PortList,
  {a7dd8ab7-13e8-47fd-94d0-9ab8402398d2}, !- Handle
  {6fbd6476-077a-4824-8479-bf06c0f6a38d}, !- Name
  {1f90167d-1993-42ab-ad39-93bafb5cd1f1}; !- HVAC Component

OS:Sizing:Zone,
  {d4d535df-cffa-4048-943f-31491a1a1a34}, !- Handle
  {1f90167d-1993-42ab-ad39-93bafb5cd1f1}, !- Zone or ZoneList Name
  SupplyAirTemperature,                   !- Zone Cooling Design Supply Air Temperature Input Method
  14,                                     !- Zone Cooling Design Supply Air Temperature {C}
  11.11,                                  !- Zone Cooling Design Supply Air Temperature Difference {deltaC}
  SupplyAirTemperature,                   !- Zone Heating Design Supply Air Temperature Input Method
  40,                                     !- Zone Heating Design Supply Air Temperature {C}
  11.11,                                  !- Zone Heating Design Supply Air Temperature Difference {deltaC}
  0.0085,                                 !- Zone Cooling Design Supply Air Humidity Ratio {kg-H2O/kg-air}
  0.008,                                  !- Zone Heating Design Supply Air Humidity Ratio {kg-H2O/kg-air}
  ,                                       !- Zone Heating Sizing Factor
  ,                                       !- Zone Cooling Sizing Factor
  DesignDay,                              !- Cooling Design Air Flow Method
  ,                                       !- Cooling Design Air Flow Rate {m3/s}
  ,                                       !- Cooling Minimum Air Flow per Zone Floor Area {m3/s-m2}
  ,                                       !- Cooling Minimum Air Flow {m3/s}
  ,                                       !- Cooling Minimum Air Flow Fraction
  DesignDay,                              !- Heating Design Air Flow Method
  ,                                       !- Heating Design Air Flow Rate {m3/s}
  ,                                       !- Heating Maximum Air Flow per Zone Floor Area {m3/s-m2}
  ,                                       !- Heating Maximum Air Flow {m3/s}
  ,                                       !- Heating Maximum Air Flow Fraction
  ,                                       !- Design Zone Air Distribution Effectiveness in Cooling Mode
  ,                                       !- Design Zone Air Distribution Effectiveness in Heating Mode
  No,                                     !- Account for Dedicated Outdoor Air System
  NeutralSupplyAir,                       !- Dedicated Outdoor Air System Control Strategy
  autosize,                               !- Dedicated Outdoor Air Low Setpoint Temperature for Design {C}
  autosize;                               !- Dedicated Outdoor Air High Setpoint Temperature for Design {C}

OS:ZoneHVAC:EquipmentList,
  {81ef6207-fd9b-4541-87c6-bb85ead5977f}, !- Handle
  Zone HVAC Equipment List 1,             !- Name
  {1f90167d-1993-42ab-ad39-93bafb5cd1f1}, !- Thermal Zone
  SequentialLoad,                         !- Load Distribution Scheme
  {9a8dab04-e468-464d-b5d7-5dd919747d8a}, !- Zone Equipment 1
  1,                                      !- Zone Equipment Cooling Sequence 1
  1,                                      !- Zone Equipment Heating or No-Load Sequence 1
  ,                                       !- Zone Equipment Sequential Cooling Fraction 1
  ;                                       !- Zone Equipment Sequential Heating Fraction 1

OS:Space,
  {1a842554-56ae-4550-a8ae-3d45397a6a7b}, !- Handle
  living space,                           !- Name
  {5d5acb61-e2e3-45da-bf3d-f377fdfd3027}, !- Space Type Name
  ,                                       !- Default Construction Set Name
  ,                                       !- Default Schedule Set Name
  ,                                       !- Direction of Relative North {deg}
  ,                                       !- X Origin {m}
  ,                                       !- Y Origin {m}
  ,                                       !- Z Origin {m}
  ,                                       !- Building Story Name
  {1f90167d-1993-42ab-ad39-93bafb5cd1f1}, !- Thermal Zone Name
  ,                                       !- Part of Total Floor Area
  ,                                       !- Design Specification Outdoor Air Object Name
  {4e1b9102-28d3-49a3-b80f-8849d7f5493c}; !- Building Unit Name

OS:Surface,
  {d68fa7eb-bbfa-4c51-85fd-5b39b18bf7a0}, !- Handle
  Surface 1,                              !- Name
  Floor,                                  !- Surface Type
  ,                                       !- Construction Name
  {1a842554-56ae-4550-a8ae-3d45397a6a7b}, !- Space Name
  Foundation,                             !- Outside Boundary Condition
  ,                                       !- Outside Boundary Condition Object
  NoSun,                                  !- Sun Exposure
  NoWind,                                 !- Wind Exposure
  ,                                       !- View Factor to Ground
  ,                                       !- Number of Vertices
  0, -12.9315688143396, 0,                !- X,Y,Z Vertex 1 {m}
  0, 0, 0,                                !- X,Y,Z Vertex 2 {m}
  6.46578440716979, 0, 0,                 !- X,Y,Z Vertex 3 {m}
  6.46578440716979, -12.9315688143396, 0; !- X,Y,Z Vertex 4 {m}

OS:Surface,
  {73af0557-0665-4782-8a1d-2c3549d255e7}, !- Handle
  Surface 2,                              !- Name
  Wall,                                   !- Surface Type
  ,                                       !- Construction Name
  {1a842554-56ae-4550-a8ae-3d45397a6a7b}, !- Space Name
  Outdoors,                               !- Outside Boundary Condition
  ,                                       !- Outside Boundary Condition Object
  SunExposed,                             !- Sun Exposure
  WindExposed,                            !- Wind Exposure
  ,                                       !- View Factor to Ground
  ,                                       !- Number of Vertices
  0, 0, 2.4384,                           !- X,Y,Z Vertex 1 {m}
  0, 0, 0,                                !- X,Y,Z Vertex 2 {m}
  0, -12.9315688143396, 0,                !- X,Y,Z Vertex 3 {m}
  0, -12.9315688143396, 2.4384;           !- X,Y,Z Vertex 4 {m}

OS:Surface,
  {89706c97-8229-48ba-8a8f-cb976926bd69}, !- Handle
  Surface 3,                              !- Name
  Wall,                                   !- Surface Type
  ,                                       !- Construction Name
  {1a842554-56ae-4550-a8ae-3d45397a6a7b}, !- Space Name
  Outdoors,                               !- Outside Boundary Condition
  ,                                       !- Outside Boundary Condition Object
  SunExposed,                             !- Sun Exposure
  WindExposed,                            !- Wind Exposure
  ,                                       !- View Factor to Ground
  ,                                       !- Number of Vertices
  6.46578440716979, 0, 2.4384,            !- X,Y,Z Vertex 1 {m}
  6.46578440716979, 0, 0,                 !- X,Y,Z Vertex 2 {m}
  0, 0, 0,                                !- X,Y,Z Vertex 3 {m}
  0, 0, 2.4384;                           !- X,Y,Z Vertex 4 {m}

OS:Surface,
  {3c5c0953-20a2-45e7-93cd-e500a12719fa}, !- Handle
  Surface 4,                              !- Name
  Wall,                                   !- Surface Type
  ,                                       !- Construction Name
  {1a842554-56ae-4550-a8ae-3d45397a6a7b}, !- Space Name
  Surface,                                !- Outside Boundary Condition
  {7a00c92f-7650-49e2-9e3d-557ff656cab0}, !- Outside Boundary Condition Object
  NoSun,                                  !- Sun Exposure
  NoWind,                                 !- Wind Exposure
  ,                                       !- View Factor to Ground
  ,                                       !- Number of Vertices
  6.46578440716979, -12.9315688143396, 2.4384, !- X,Y,Z Vertex 1 {m}
  6.46578440716979, -12.9315688143396, 0, !- X,Y,Z Vertex 2 {m}
  6.46578440716979, 0, 0,                 !- X,Y,Z Vertex 3 {m}
  6.46578440716979, 0, 2.4384;            !- X,Y,Z Vertex 4 {m}

OS:Surface,
  {26f7b0e6-80de-44f1-84f6-3f2d23175681}, !- Handle
  Surface 5,                              !- Name
  Wall,                                   !- Surface Type
  ,                                       !- Construction Name
  {1a842554-56ae-4550-a8ae-3d45397a6a7b}, !- Space Name
  Outdoors,                               !- Outside Boundary Condition
  ,                                       !- Outside Boundary Condition Object
  SunExposed,                             !- Sun Exposure
  WindExposed,                            !- Wind Exposure
  ,                                       !- View Factor to Ground
  ,                                       !- Number of Vertices
  0, -12.9315688143396, 2.4384,           !- X,Y,Z Vertex 1 {m}
  0, -12.9315688143396, 0,                !- X,Y,Z Vertex 2 {m}
  6.46578440716979, -12.9315688143396, 0, !- X,Y,Z Vertex 3 {m}
  6.46578440716979, -12.9315688143396, 2.4384; !- X,Y,Z Vertex 4 {m}

OS:Surface,
  {c4ad5199-be19-45ba-8994-7d084a22755a}, !- Handle
  Surface 6,                              !- Name
  RoofCeiling,                            !- Surface Type
  ,                                       !- Construction Name
  {1a842554-56ae-4550-a8ae-3d45397a6a7b}, !- Space Name
  Surface,                                !- Outside Boundary Condition
  {3b48f387-165d-4dcd-b12e-f81bada8d9fb}, !- Outside Boundary Condition Object
  NoSun,                                  !- Sun Exposure
  NoWind,                                 !- Wind Exposure
  ,                                       !- View Factor to Ground
  ,                                       !- Number of Vertices
  6.46578440716979, -12.9315688143396, 2.4384, !- X,Y,Z Vertex 1 {m}
  6.46578440716979, 0, 2.4384,            !- X,Y,Z Vertex 2 {m}
  0, 0, 2.4384,                           !- X,Y,Z Vertex 3 {m}
  0, -12.9315688143396, 2.4384;           !- X,Y,Z Vertex 4 {m}

OS:SpaceType,
  {5d5acb61-e2e3-45da-bf3d-f377fdfd3027}, !- Handle
  Space Type 1,                           !- Name
  ,                                       !- Default Construction Set Name
  ,                                       !- Default Schedule Set Name
  ,                                       !- Group Rendering Name
  ,                                       !- Design Specification Outdoor Air Object Name
  ,                                       !- Standards Template
  ,                                       !- Standards Building Type
  living;                                 !- Standards Space Type

OS:ThermalZone,
  {8d99154a-19a1-492f-861e-dcaf0c772fc8}, !- Handle
  living zone|unit 2,                     !- Name
  ,                                       !- Multiplier
  ,                                       !- Ceiling Height {m}
  ,                                       !- Volume {m3}
  ,                                       !- Floor Area {m2}
  ,                                       !- Zone Inside Convection Algorithm
  ,                                       !- Zone Outside Convection Algorithm
  ,                                       !- Zone Conditioning Equipment List Name
  {ad268ce8-2abf-4403-9ad8-1e33afa84724}, !- Zone Air Inlet Port List
  {12bfffc5-ff16-4f03-b8aa-fa6c691a91eb}, !- Zone Air Exhaust Port List
  {93543e2c-b6e6-4a4a-a19d-ecd799a505a5}, !- Zone Air Node Name
  {964e5200-1812-4783-abc4-84a8925e9296}, !- Zone Return Air Port List
  ,                                       !- Primary Daylighting Control Name
  ,                                       !- Fraction of Zone Controlled by Primary Daylighting Control
  ,                                       !- Secondary Daylighting Control Name
  ,                                       !- Fraction of Zone Controlled by Secondary Daylighting Control
  ,                                       !- Illuminance Map Name
  ,                                       !- Group Rendering Name
  {c67b7551-44e4-447a-9a3a-bc70d28265a5}, !- Thermostat Name
  No;                                     !- Use Ideal Air Loads

OS:Node,
  {f2524a3b-6dce-4b41-a608-502fe084b134}, !- Handle
  Node 2,                                 !- Name
  {93543e2c-b6e6-4a4a-a19d-ecd799a505a5}, !- Inlet Port
  ;                                       !- Outlet Port

OS:Connection,
  {93543e2c-b6e6-4a4a-a19d-ecd799a505a5}, !- Handle
  {53a37d36-fb62-4b18-b181-7ae177e93b87}, !- Name
  {8d99154a-19a1-492f-861e-dcaf0c772fc8}, !- Source Object
  11,                                     !- Outlet Port
  {f2524a3b-6dce-4b41-a608-502fe084b134}, !- Target Object
  2;                                      !- Inlet Port

OS:PortList,
  {ad268ce8-2abf-4403-9ad8-1e33afa84724}, !- Handle
  {49d5d549-ef6e-4c6a-b4c9-3cc44a530601}, !- Name
  {8d99154a-19a1-492f-861e-dcaf0c772fc8}, !- HVAC Component
  {5bfef48d-dfd9-4783-a0ce-327895a940a9}; !- Port 1

OS:PortList,
  {12bfffc5-ff16-4f03-b8aa-fa6c691a91eb}, !- Handle
  {25005561-e1e5-40ac-9180-e5a64d491db7}, !- Name
  {8d99154a-19a1-492f-861e-dcaf0c772fc8}, !- HVAC Component
  {46835523-4a7d-4421-a13b-052b23dbd219}; !- Port 1

OS:PortList,
  {964e5200-1812-4783-abc4-84a8925e9296}, !- Handle
  {0eefae33-66cb-4910-a610-977bbcd495f4}, !- Name
  {8d99154a-19a1-492f-861e-dcaf0c772fc8}; !- HVAC Component

OS:Sizing:Zone,
  {456f0c9b-dffc-43f2-a43b-23b36f4197fc}, !- Handle
  {8d99154a-19a1-492f-861e-dcaf0c772fc8}, !- Zone or ZoneList Name
  SupplyAirTemperature,                   !- Zone Cooling Design Supply Air Temperature Input Method
  14,                                     !- Zone Cooling Design Supply Air Temperature {C}
  11.11,                                  !- Zone Cooling Design Supply Air Temperature Difference {deltaC}
  SupplyAirTemperature,                   !- Zone Heating Design Supply Air Temperature Input Method
  40,                                     !- Zone Heating Design Supply Air Temperature {C}
  11.11,                                  !- Zone Heating Design Supply Air Temperature Difference {deltaC}
  0.0085,                                 !- Zone Cooling Design Supply Air Humidity Ratio {kg-H2O/kg-air}
  0.008,                                  !- Zone Heating Design Supply Air Humidity Ratio {kg-H2O/kg-air}
  ,                                       !- Zone Heating Sizing Factor
  ,                                       !- Zone Cooling Sizing Factor
  DesignDay,                              !- Cooling Design Air Flow Method
  ,                                       !- Cooling Design Air Flow Rate {m3/s}
  ,                                       !- Cooling Minimum Air Flow per Zone Floor Area {m3/s-m2}
  ,                                       !- Cooling Minimum Air Flow {m3/s}
  ,                                       !- Cooling Minimum Air Flow Fraction
  DesignDay,                              !- Heating Design Air Flow Method
  ,                                       !- Heating Design Air Flow Rate {m3/s}
  ,                                       !- Heating Maximum Air Flow per Zone Floor Area {m3/s-m2}
  ,                                       !- Heating Maximum Air Flow {m3/s}
  ,                                       !- Heating Maximum Air Flow Fraction
  ,                                       !- Design Zone Air Distribution Effectiveness in Cooling Mode
  ,                                       !- Design Zone Air Distribution Effectiveness in Heating Mode
  No,                                     !- Account for Dedicated Outdoor Air System
  NeutralSupplyAir,                       !- Dedicated Outdoor Air System Control Strategy
  autosize,                               !- Dedicated Outdoor Air Low Setpoint Temperature for Design {C}
  autosize;                               !- Dedicated Outdoor Air High Setpoint Temperature for Design {C}

OS:ZoneHVAC:EquipmentList,
  {66f0e37e-7af0-4aff-b914-1c78185c902c}, !- Handle
  Zone HVAC Equipment List 2,             !- Name
  {8d99154a-19a1-492f-861e-dcaf0c772fc8}, !- Thermal Zone
  SequentialLoad,                         !- Load Distribution Scheme
  {60bd8c10-94cb-43e2-bbfd-fe0a852b41fc}, !- Zone Equipment 1
  1,                                      !- Zone Equipment Cooling Sequence 1
  1,                                      !- Zone Equipment Heating or No-Load Sequence 1
  ,                                       !- Zone Equipment Sequential Cooling Fraction 1
  ;                                       !- Zone Equipment Sequential Heating Fraction 1

OS:Space,
  {e3c98894-6aa4-4075-9c8a-90ca749bcaed}, !- Handle
  living space|unit 2|story 1,            !- Name
  {5d5acb61-e2e3-45da-bf3d-f377fdfd3027}, !- Space Type Name
  ,                                       !- Default Construction Set Name
  ,                                       !- Default Schedule Set Name
  -0,                                     !- Direction of Relative North {deg}
  0,                                      !- X Origin {m}
  0,                                      !- Y Origin {m}
  0,                                      !- Z Origin {m}
  ,                                       !- Building Story Name
  {8d99154a-19a1-492f-861e-dcaf0c772fc8}, !- Thermal Zone Name
  ,                                       !- Part of Total Floor Area
  ,                                       !- Design Specification Outdoor Air Object Name
  {fbcf2efe-6708-4ae1-8621-69202fa2621c}; !- Building Unit Name

OS:Surface,
  {979c89f6-cfa6-4303-b1bf-86b0af6c0347}, !- Handle
  Surface 12,                             !- Name
  Wall,                                   !- Surface Type
  ,                                       !- Construction Name
  {e3c98894-6aa4-4075-9c8a-90ca749bcaed}, !- Space Name
  Surface,                                !- Outside Boundary Condition
  {3c0166ae-5cd8-4207-ab4c-165bf822165b}, !- Outside Boundary Condition Object
  NoSun,                                  !- Sun Exposure
  NoWind,                                 !- Wind Exposure
  ,                                       !- View Factor to Ground
  ,                                       !- Number of Vertices
  12.9315688143396, -12.9315688143396, 2.4384, !- X,Y,Z Vertex 1 {m}
  12.9315688143396, -12.9315688143396, 0, !- X,Y,Z Vertex 2 {m}
  12.9315688143396, 0, 0,                 !- X,Y,Z Vertex 3 {m}
  12.9315688143396, 0, 2.4384;            !- X,Y,Z Vertex 4 {m}

OS:Surface,
  {4f1e56c7-37ec-4aae-8dfa-c26626c4c5a6}, !- Handle
  Surface 13,                             !- Name
  Wall,                                   !- Surface Type
  ,                                       !- Construction Name
  {e3c98894-6aa4-4075-9c8a-90ca749bcaed}, !- Space Name
  Outdoors,                               !- Outside Boundary Condition
  ,                                       !- Outside Boundary Condition Object
  SunExposed,                             !- Sun Exposure
  WindExposed,                            !- Wind Exposure
  ,                                       !- View Factor to Ground
  ,                                       !- Number of Vertices
  6.46578440716979, -12.9315688143396, 2.4384, !- X,Y,Z Vertex 1 {m}
  6.46578440716979, -12.9315688143396, 0, !- X,Y,Z Vertex 2 {m}
  12.9315688143396, -12.9315688143396, 0, !- X,Y,Z Vertex 3 {m}
  12.9315688143396, -12.9315688143396, 2.4384; !- X,Y,Z Vertex 4 {m}

OS:Surface,
  {dead0d92-f534-4346-82b4-1dd5435d2519}, !- Handle
  Surface 14,                             !- Name
  RoofCeiling,                            !- Surface Type
  ,                                       !- Construction Name
  {e3c98894-6aa4-4075-9c8a-90ca749bcaed}, !- Space Name
  Surface,                                !- Outside Boundary Condition
  {78b8f88e-939a-4743-af95-885f66bbc9fa}, !- Outside Boundary Condition Object
  NoSun,                                  !- Sun Exposure
  NoWind,                                 !- Wind Exposure
  ,                                       !- View Factor to Ground
  ,                                       !- Number of Vertices
  12.9315688143396, -12.9315688143396, 2.4384, !- X,Y,Z Vertex 1 {m}
  12.9315688143396, 0, 2.4384,            !- X,Y,Z Vertex 2 {m}
  6.46578440716979, 0, 2.4384,            !- X,Y,Z Vertex 3 {m}
  6.46578440716979, -12.9315688143396, 2.4384; !- X,Y,Z Vertex 4 {m}

OS:Surface,
  {939d2dc6-03ba-442c-b613-f0c8d7040fb1}, !- Handle
  Surface 15,                             !- Name
  Wall,                                   !- Surface Type
  ,                                       !- Construction Name
  {e3c98894-6aa4-4075-9c8a-90ca749bcaed}, !- Space Name
  Outdoors,                               !- Outside Boundary Condition
  ,                                       !- Outside Boundary Condition Object
  SunExposed,                             !- Sun Exposure
  WindExposed,                            !- Wind Exposure
  ,                                       !- View Factor to Ground
  ,                                       !- Number of Vertices
  12.9315688143396, 0, 2.4384,            !- X,Y,Z Vertex 1 {m}
  12.9315688143396, 0, 0,                 !- X,Y,Z Vertex 2 {m}
  6.46578440716979, 0, 0,                 !- X,Y,Z Vertex 3 {m}
  6.46578440716979, 0, 2.4384;            !- X,Y,Z Vertex 4 {m}

OS:Surface,
  {7a00c92f-7650-49e2-9e3d-557ff656cab0}, !- Handle
  Surface 16,                             !- Name
  Wall,                                   !- Surface Type
  ,                                       !- Construction Name
  {e3c98894-6aa4-4075-9c8a-90ca749bcaed}, !- Space Name
  Surface,                                !- Outside Boundary Condition
  {3c5c0953-20a2-45e7-93cd-e500a12719fa}, !- Outside Boundary Condition Object
  NoSun,                                  !- Sun Exposure
  NoWind,                                 !- Wind Exposure
  ,                                       !- View Factor to Ground
  ,                                       !- Number of Vertices
  6.46578440716979, 0, 2.4384,            !- X,Y,Z Vertex 1 {m}
  6.46578440716979, 0, 0,                 !- X,Y,Z Vertex 2 {m}
  6.46578440716979, -12.9315688143396, 0, !- X,Y,Z Vertex 3 {m}
  6.46578440716979, -12.9315688143396, 2.4384; !- X,Y,Z Vertex 4 {m}

OS:Surface,
  {3f0f55ee-de2d-45c9-8146-8e3811fbdc1b}, !- Handle
  Surface 17,                             !- Name
  Floor,                                  !- Surface Type
  ,                                       !- Construction Name
  {e3c98894-6aa4-4075-9c8a-90ca749bcaed}, !- Space Name
  Foundation,                             !- Outside Boundary Condition
  ,                                       !- Outside Boundary Condition Object
  NoSun,                                  !- Sun Exposure
  NoWind,                                 !- Wind Exposure
  ,                                       !- View Factor to Ground
  ,                                       !- Number of Vertices
  6.46578440716979, -12.9315688143396, 0, !- X,Y,Z Vertex 1 {m}
  6.46578440716979, 0, 0,                 !- X,Y,Z Vertex 2 {m}
  12.9315688143396, 0, 0,                 !- X,Y,Z Vertex 3 {m}
  12.9315688143396, -12.9315688143396, 0; !- X,Y,Z Vertex 4 {m}

OS:ThermalZone,
  {e1d5c549-be7f-48e2-81f9-3d77a01b34ec}, !- Handle
  living zone|unit 3,                     !- Name
  ,                                       !- Multiplier
  ,                                       !- Ceiling Height {m}
  ,                                       !- Volume {m3}
  ,                                       !- Floor Area {m2}
  ,                                       !- Zone Inside Convection Algorithm
  ,                                       !- Zone Outside Convection Algorithm
  ,                                       !- Zone Conditioning Equipment List Name
  {a187b9b3-2eec-4c4a-9510-b632bc55dac7}, !- Zone Air Inlet Port List
  {e47dc217-da85-40aa-be4b-53745e0118e0}, !- Zone Air Exhaust Port List
  {31ff6aa4-8075-40bd-af76-063aaaac9221}, !- Zone Air Node Name
  {40fc282d-83f8-49fd-b7b6-09aa9ea2794d}, !- Zone Return Air Port List
  ,                                       !- Primary Daylighting Control Name
  ,                                       !- Fraction of Zone Controlled by Primary Daylighting Control
  ,                                       !- Secondary Daylighting Control Name
  ,                                       !- Fraction of Zone Controlled by Secondary Daylighting Control
  ,                                       !- Illuminance Map Name
  ,                                       !- Group Rendering Name
  {a18f6062-0ac4-416b-9d9f-eb85c060b3eb}, !- Thermostat Name
  No;                                     !- Use Ideal Air Loads

OS:Node,
  {c54dcb09-ea8e-4cfc-b1a6-3b6a90994510}, !- Handle
  Node 3,                                 !- Name