!- NOTE: Auto-generated from /test/osw_files/SFA_4units_1story_FB_UA_3Beds_2Baths_Denver_WHTank_HWFixtures.osw

OS:Version,
  {a9cacef3-75b7-4966-a504-e93407cfbcba}, !- Handle
  2.9.0;                                  !- Version Identifier

OS:SimulationControl,
  {3dfcde17-b70d-4443-aafc-fbdd13a8550d}, !- Handle
  ,                                       !- Do Zone Sizing Calculation
  ,                                       !- Do System Sizing Calculation
  ,                                       !- Do Plant Sizing Calculation
  No;                                     !- Run Simulation for Sizing Periods

OS:Timestep,
  {2c4cc541-9e97-41cf-b8e9-abba553ad514}, !- Handle
  6;                                      !- Number of Timesteps per Hour

OS:ShadowCalculation,
  {779bca3b-7869-4053-90ca-3397606c0d70}, !- Handle
  20,                                     !- Calculation Frequency
  200;                                    !- Maximum Figures in Shadow Overlap Calculations

OS:SurfaceConvectionAlgorithm:Outside,
  {abdbd7ab-0861-4d6a-bc09-8013f15f28aa}, !- Handle
  DOE-2;                                  !- Algorithm

OS:SurfaceConvectionAlgorithm:Inside,
  {1a4dc716-869d-4565-8f41-a0c6e01e22b4}, !- Handle
  TARP;                                   !- Algorithm

OS:ZoneCapacitanceMultiplier:ResearchSpecial,
  {b2e4ab0a-e9e0-464d-b151-0ddea74c1a10}, !- Handle
  ,                                       !- Temperature Capacity Multiplier
  15,                                     !- Humidity Capacity Multiplier
  ;                                       !- Carbon Dioxide Capacity Multiplier

OS:RunPeriod,
  {ba73f8b5-3f4f-4509-92c2-0b8cbb828b5c}, !- Handle
  Run Period 1,                           !- Name
  1,                                      !- Begin Month
  1,                                      !- Begin Day of Month
  12,                                     !- End Month
  31,                                     !- End Day of Month
  ,                                       !- Use Weather File Holidays and Special Days
  ,                                       !- Use Weather File Daylight Saving Period
  ,                                       !- Apply Weekend Holiday Rule
  ,                                       !- Use Weather File Rain Indicators
  ,                                       !- Use Weather File Snow Indicators
  ;                                       !- Number of Times Runperiod to be Repeated

OS:YearDescription,
  {bdcfa89a-bb90-4c6b-9eed-757c5ff3096d}, !- Handle
  2007,                                   !- Calendar Year
  ,                                       !- Day of Week for Start Day
  ;                                       !- Is Leap Year

OS:ThermalZone,
  {04dfc45a-ffcc-44df-9558-1d6eea0bdc47}, !- Handle
  living zone,                            !- Name
  ,                                       !- Multiplier
  ,                                       !- Ceiling Height {m}
  ,                                       !- Volume {m3}
  ,                                       !- Floor Area {m2}
  ,                                       !- Zone Inside Convection Algorithm
  ,                                       !- Zone Outside Convection Algorithm
  ,                                       !- Zone Conditioning Equipment List Name
  {d366bd39-79b9-44a0-b638-901de25a951d}, !- Zone Air Inlet Port List
  {f68a5cfa-559e-4cc8-8214-2ebe169197fc}, !- Zone Air Exhaust Port List
  {6fad3335-a8f2-491e-9602-cca366bde8d9}, !- Zone Air Node Name
  {babcccb0-00b3-4a60-9620-2cfd10404925}, !- Zone Return Air Port List
  ,                                       !- Primary Daylighting Control Name
  ,                                       !- Fraction of Zone Controlled by Primary Daylighting Control
  ,                                       !- Secondary Daylighting Control Name
  ,                                       !- Fraction of Zone Controlled by Secondary Daylighting Control
  ,                                       !- Illuminance Map Name
  ,                                       !- Group Rendering Name
  ,                                       !- Thermostat Name
  No;                                     !- Use Ideal Air Loads

OS:Node,
  {fe4288c7-b591-4d44-a313-2d81ffdf0d16}, !- Handle
  Node 1,                                 !- Name
  {6fad3335-a8f2-491e-9602-cca366bde8d9}, !- Inlet Port
  ;                                       !- Outlet Port

OS:Connection,
  {6fad3335-a8f2-491e-9602-cca366bde8d9}, !- Handle
  {24b916af-cb43-415f-8692-51554df216ab}, !- Name
  {04dfc45a-ffcc-44df-9558-1d6eea0bdc47}, !- Source Object
  11,                                     !- Outlet Port
  {fe4288c7-b591-4d44-a313-2d81ffdf0d16}, !- Target Object
  2;                                      !- Inlet Port

OS:PortList,
  {d366bd39-79b9-44a0-b638-901de25a951d}, !- Handle
  {9d9e8c27-5380-4216-ab5d-acad37ed6038}, !- Name
  {04dfc45a-ffcc-44df-9558-1d6eea0bdc47}; !- HVAC Component

OS:PortList,
  {f68a5cfa-559e-4cc8-8214-2ebe169197fc}, !- Handle
  {648b4918-2eca-4a4d-b152-f7b96a8171d9}, !- Name
  {04dfc45a-ffcc-44df-9558-1d6eea0bdc47}; !- HVAC Component

OS:PortList,
  {babcccb0-00b3-4a60-9620-2cfd10404925}, !- Handle
  {9e5323e0-8bd1-4335-8e10-1fc447d7249a}, !- Name
  {04dfc45a-ffcc-44df-9558-1d6eea0bdc47}; !- HVAC Component

OS:Sizing:Zone,
  {dbe64b63-5828-403d-8384-75fae961ff09}, !- Handle
  {04dfc45a-ffcc-44df-9558-1d6eea0bdc47}, !- Zone or ZoneList Name
  SupplyAirTemperature,                   !- Zone Cooling Design Supply Air Temperature Input Method
  14,                                     !- Zone Cooling Design Supply Air Temperature {C}
  11.11,                                  !- Zone Cooling Design Supply Air Temperature Difference {deltaC}
  SupplyAirTemperature,                   !- Zone Heating Design Supply Air Temperature Input Method
  40,                                     !- Zone Heating Design Supply Air Temperature {C}
  11.11,                                  !- Zone Heating Design Supply Air Temperature Difference {deltaC}
  0.0085,                                 !- Zone Cooling Design Supply Air Humidity Ratio {kg-H2O/kg-air}
  0.008,                                  !- Zone Heating Design Supply Air Humidity Ratio {kg-H2O/kg-air}
  ,                                       !- Zone Heating Sizing Factor
  ,                                       !- Zone Cooling Sizing Factor
  DesignDay,                              !- Cooling Design Air Flow Method
  ,                                       !- Cooling Design Air Flow Rate {m3/s}
  ,                                       !- Cooling Minimum Air Flow per Zone Floor Area {m3/s-m2}
  ,                                       !- Cooling Minimum Air Flow {m3/s}
  ,                                       !- Cooling Minimum Air Flow Fraction
  DesignDay,                              !- Heating Design Air Flow Method
  ,                                       !- Heating Design Air Flow Rate {m3/s}
  ,                                       !- Heating Maximum Air Flow per Zone Floor Area {m3/s-m2}
  ,                                       !- Heating Maximum Air Flow {m3/s}
  ,                                       !- Heating Maximum Air Flow Fraction
  ,                                       !- Design Zone Air Distribution Effectiveness in Cooling Mode
  ,                                       !- Design Zone Air Distribution Effectiveness in Heating Mode
  No,                                     !- Account for Dedicated Outdoor Air System
  NeutralSupplyAir,                       !- Dedicated Outdoor Air System Control Strategy
  autosize,                               !- Dedicated Outdoor Air Low Setpoint Temperature for Design {C}
  autosize;                               !- Dedicated Outdoor Air High Setpoint Temperature for Design {C}

OS:ZoneHVAC:EquipmentList,
  {41f4aa58-c83f-4336-8f90-804170bb1de2}, !- Handle
  Zone HVAC Equipment List 1,             !- Name
  {04dfc45a-ffcc-44df-9558-1d6eea0bdc47}; !- Thermal Zone

OS:Space,
  {2c62e7de-2f85-4de4-8cd0-9e78451a23a5}, !- Handle
  living space,                           !- Name
  {d6ee5ab0-60fb-4b62-8b5d-6f8a7693c593}, !- Space Type Name
  ,                                       !- Default Construction Set Name
  ,                                       !- Default Schedule Set Name
  ,                                       !- Direction of Relative North {deg}
  ,                                       !- X Origin {m}
  ,                                       !- Y Origin {m}
  ,                                       !- Z Origin {m}
  ,                                       !- Building Story Name
  {04dfc45a-ffcc-44df-9558-1d6eea0bdc47}, !- Thermal Zone Name
  ,                                       !- Part of Total Floor Area
  ,                                       !- Design Specification Outdoor Air Object Name
  {d54e24a8-4756-48e6-82cb-b8bc8fb73626}; !- Building Unit Name

OS:Surface,
  {2ef62bdb-f433-40d7-a949-0f7e3510f114}, !- Handle
  Surface 1,                              !- Name
  Floor,                                  !- Surface Type
  ,                                       !- Construction Name
  {2c62e7de-2f85-4de4-8cd0-9e78451a23a5}, !- Space Name
  Surface,                                !- Outside Boundary Condition
  {2cbe0ced-f6ec-49d8-b076-3b367cf638c2}, !- Outside Boundary Condition Object
  NoSun,                                  !- Sun Exposure
  NoWind,                                 !- Wind Exposure
  ,                                       !- View Factor to Ground
  ,                                       !- Number of Vertices
  0, -9.144, 0,                           !- X,Y,Z Vertex 1 {m}
  0, 0, 0,                                !- X,Y,Z Vertex 2 {m}
  4.572, 0, 0,                            !- X,Y,Z Vertex 3 {m}
  4.572, -9.144, 0;                       !- X,Y,Z Vertex 4 {m}

OS:Surface,
  {334afc7e-fa1a-4825-9f12-f4b58ad7cdfe}, !- Handle
  Surface 2,                              !- Name
  Wall,                                   !- Surface Type
  ,                                       !- Construction Name
  {2c62e7de-2f85-4de4-8cd0-9e78451a23a5}, !- Space Name
  Outdoors,                               !- Outside Boundary Condition
  ,                                       !- Outside Boundary Condition Object
  SunExposed,                             !- Sun Exposure
  WindExposed,                            !- Wind Exposure
  ,                                       !- View Factor to Ground
  ,                                       !- Number of Vertices
  0, 0, 2.4384,                           !- X,Y,Z Vertex 1 {m}
  0, 0, 0,                                !- X,Y,Z Vertex 2 {m}
  0, -9.144, 0,                           !- X,Y,Z Vertex 3 {m}
  0, -9.144, 2.4384;                      !- X,Y,Z Vertex 4 {m}

OS:Surface,
  {779dd8d4-a8e6-48f5-aaa2-19e8ac46ece8}, !- Handle
  Surface 3,                              !- Name
  Wall,                                   !- Surface Type
  ,                                       !- Construction Name
  {2c62e7de-2f85-4de4-8cd0-9e78451a23a5}, !- Space Name
  Outdoors,                               !- Outside Boundary Condition
  ,                                       !- Outside Boundary Condition Object
  SunExposed,                             !- Sun Exposure
  WindExposed,                            !- Wind Exposure
  ,                                       !- View Factor to Ground
  ,                                       !- Number of Vertices
  4.572, 0, 2.4384,                       !- X,Y,Z Vertex 1 {m}
  4.572, 0, 0,                            !- X,Y,Z Vertex 2 {m}
  0, 0, 0,                                !- X,Y,Z Vertex 3 {m}
  0, 0, 2.4384;                           !- X,Y,Z Vertex 4 {m}

OS:Surface,
  {a4cd7ab2-2da5-4364-8ddb-ff3d4406301c}, !- Handle
  Surface 4,                              !- Name
  Wall,                                   !- Surface Type
  ,                                       !- Construction Name
  {2c62e7de-2f85-4de4-8cd0-9e78451a23a5}, !- Space Name
  Surface,                                !- Outside Boundary Condition
  {87082114-e885-4763-9cc0-c8914cc1de85}, !- Outside Boundary Condition Object
  NoSun,                                  !- Sun Exposure
  NoWind,                                 !- Wind Exposure
  ,                                       !- View Factor to Ground
  ,                                       !- Number of Vertices
  4.572, -9.144, 2.4384,                  !- X,Y,Z Vertex 1 {m}
  4.572, -9.144, 0,                       !- X,Y,Z Vertex 2 {m}
  4.572, 0, 0,                            !- X,Y,Z Vertex 3 {m}
  4.572, 0, 2.4384;                       !- X,Y,Z Vertex 4 {m}

OS:Surface,
  {de6610bc-9265-4d68-aae5-26836140d444}, !- Handle
  Surface 5,                              !- Name
  Wall,                                   !- Surface Type
  ,                                       !- Construction Name
  {2c62e7de-2f85-4de4-8cd0-9e78451a23a5}, !- Space Name
  Outdoors,                               !- Outside Boundary Condition
  ,                                       !- Outside Boundary Condition Object
  SunExposed,                             !- Sun Exposure
  WindExposed,                            !- Wind Exposure
  ,                                       !- View Factor to Ground
  ,                                       !- Number of Vertices
  0, -9.144, 2.4384,                      !- X,Y,Z Vertex 1 {m}
  0, -9.144, 0,                           !- X,Y,Z Vertex 2 {m}
  4.572, -9.144, 0,                       !- X,Y,Z Vertex 3 {m}
  4.572, -9.144, 2.4384;                  !- X,Y,Z Vertex 4 {m}

OS:Surface,
  {54b5cacd-e915-42d1-aeb3-4fb586c77888}, !- Handle
  Surface 6,                              !- Name
  RoofCeiling,                            !- Surface Type
  ,                                       !- Construction Name
  {2c62e7de-2f85-4de4-8cd0-9e78451a23a5}, !- Space Name
  Surface,                                !- Outside Boundary Condition
  {33cbcb2e-cc09-4c1d-b333-0a28f8bf43ba}, !- Outside Boundary Condition Object
  NoSun,                                  !- Sun Exposure
  NoWind,                                 !- Wind Exposure
  ,                                       !- View Factor to Ground
  ,                                       !- Number of Vertices
  4.572, -9.144, 2.4384,                  !- X,Y,Z Vertex 1 {m}
  4.572, 0, 2.4384,                       !- X,Y,Z Vertex 2 {m}
  0, 0, 2.4384,                           !- X,Y,Z Vertex 3 {m}
  0, -9.144, 2.4384;                      !- X,Y,Z Vertex 4 {m}

OS:SpaceType,
  {d6ee5ab0-60fb-4b62-8b5d-6f8a7693c593}, !- Handle
  Space Type 1,                           !- Name
  ,                                       !- Default Construction Set Name
  ,                                       !- Default Schedule Set Name
  ,                                       !- Group Rendering Name
  ,                                       !- Design Specification Outdoor Air Object Name
  ,                                       !- Standards Template
  ,                                       !- Standards Building Type
  living;                                 !- Standards Space Type

OS:ThermalZone,
  {3affb6c4-94f3-4f7d-9c06-4ea26a5d06d6}, !- Handle
  living zone|unit 2,                     !- Name
  ,                                       !- Multiplier
  ,                                       !- Ceiling Height {m}
  ,                                       !- Volume {m3}
  ,                                       !- Floor Area {m2}
  ,                                       !- Zone Inside Convection Algorithm
  ,                                       !- Zone Outside Convection Algorithm
  ,                                       !- Zone Conditioning Equipment List Name
  {85a39218-d99e-46f0-b35f-95e0867ef5f2}, !- Zone Air Inlet Port List
  {ce0ecbc8-0ee5-4319-9524-8d50d186ab82}, !- Zone Air Exhaust Port List
  {ce4c029c-6eac-4c61-9d8d-cae19589aa30}, !- Zone Air Node Name
  {cdaebee5-7f95-488f-ba93-ccc08c475dfc}, !- Zone Return Air Port List
  ,                                       !- Primary Daylighting Control Name
  ,                                       !- Fraction of Zone Controlled by Primary Daylighting Control
  ,                                       !- Secondary Daylighting Control Name
  ,                                       !- Fraction of Zone Controlled by Secondary Daylighting Control
  ,                                       !- Illuminance Map Name
  ,                                       !- Group Rendering Name
  ,                                       !- Thermostat Name
  No;                                     !- Use Ideal Air Loads

OS:Node,
  {6e952ed6-de9a-468b-8982-d54f7e004315}, !- Handle
  Node 2,                                 !- Name
  {ce4c029c-6eac-4c61-9d8d-cae19589aa30}, !- Inlet Port
  ;                                       !- Outlet Port

OS:Connection,
  {ce4c029c-6eac-4c61-9d8d-cae19589aa30}, !- Handle
  {444288e8-acc6-4843-b4dd-ae465a68b127}, !- Name
  {3affb6c4-94f3-4f7d-9c06-4ea26a5d06d6}, !- Source Object
  11,                                     !- Outlet Port
  {6e952ed6-de9a-468b-8982-d54f7e004315}, !- Target Object
  2;                                      !- Inlet Port

OS:PortList,
  {85a39218-d99e-46f0-b35f-95e0867ef5f2}, !- Handle
  {a03e6edd-e494-4150-aaac-fd07c2067ebc}, !- Name
  {3affb6c4-94f3-4f7d-9c06-4ea26a5d06d6}; !- HVAC Component

OS:PortList,
  {ce0ecbc8-0ee5-4319-9524-8d50d186ab82}, !- Handle
  {d541924b-a8bb-4ef3-a9ff-49e8d8066c7b}, !- Name
  {3affb6c4-94f3-4f7d-9c06-4ea26a5d06d6}; !- HVAC Component

OS:PortList,
  {cdaebee5-7f95-488f-ba93-ccc08c475dfc}, !- Handle
  {87c83ea0-03c0-4306-a46f-dfc34c42e07f}, !- Name
  {3affb6c4-94f3-4f7d-9c06-4ea26a5d06d6}; !- HVAC Component

OS:Sizing:Zone,
  {b239f1d6-5284-461a-8943-cd37a64c020d}, !- Handle
  {3affb6c4-94f3-4f7d-9c06-4ea26a5d06d6}, !- Zone or ZoneList Name
  SupplyAirTemperature,                   !- Zone Cooling Design Supply Air Temperature Input Method
  14,                                     !- Zone Cooling Design Supply Air Temperature {C}
  11.11,                                  !- Zone Cooling Design Supply Air Temperature Difference {deltaC}
  SupplyAirTemperature,                   !- Zone Heating Design Supply Air Temperature Input Method
  40,                                     !- Zone Heating Design Supply Air Temperature {C}
  11.11,                                  !- Zone Heating Design Supply Air Temperature Difference {deltaC}
  0.0085,                                 !- Zone Cooling Design Supply Air Humidity Ratio {kg-H2O/kg-air}
  0.008,                                  !- Zone Heating Design Supply Air Humidity Ratio {kg-H2O/kg-air}
  ,                                       !- Zone Heating Sizing Factor
  ,                                       !- Zone Cooling Sizing Factor
  DesignDay,                              !- Cooling Design Air Flow Method
  ,                                       !- Cooling Design Air Flow Rate {m3/s}
  ,                                       !- Cooling Minimum Air Flow per Zone Floor Area {m3/s-m2}
  ,                                       !- Cooling Minimum Air Flow {m3/s}
  ,                                       !- Cooling Minimum Air Flow Fraction
  DesignDay,                              !- Heating Design Air Flow Method
  ,                                       !- Heating Design Air Flow Rate {m3/s}
  ,                                       !- Heating Maximum Air Flow per Zone Floor Area {m3/s-m2}
  ,                                       !- Heating Maximum Air Flow {m3/s}
  ,                                       !- Heating Maximum Air Flow Fraction
  ,                                       !- Design Zone Air Distribution Effectiveness in Cooling Mode
  ,                                       !- Design Zone Air Distribution Effectiveness in Heating Mode
  No,                                     !- Account for Dedicated Outdoor Air System
  NeutralSupplyAir,                       !- Dedicated Outdoor Air System Control Strategy
  autosize,                               !- Dedicated Outdoor Air Low Setpoint Temperature for Design {C}
  autosize;                               !- Dedicated Outdoor Air High Setpoint Temperature for Design {C}

OS:ZoneHVAC:EquipmentList,
  {0a385570-740b-447a-8d72-bc430359cf3b}, !- Handle
  Zone HVAC Equipment List 2,             !- Name
  {3affb6c4-94f3-4f7d-9c06-4ea26a5d06d6}; !- Thermal Zone

OS:Space,
  {1571f01a-a927-4730-ba09-c963a22dfdb5}, !- Handle
  living space|unit 2|story 1,            !- Name
  {d6ee5ab0-60fb-4b62-8b5d-6f8a7693c593}, !- Space Type Name
  ,                                       !- Default Construction Set Name
  ,                                       !- Default Schedule Set Name
  -0,                                     !- Direction of Relative North {deg}
  0,                                      !- X Origin {m}
  0,                                      !- Y Origin {m}
  0,                                      !- Z Origin {m}
  ,                                       !- Building Story Name
  {3affb6c4-94f3-4f7d-9c06-4ea26a5d06d6}, !- Thermal Zone Name
  ,                                       !- Part of Total Floor Area
  ,                                       !- Design Specification Outdoor Air Object Name
  {80df2eb7-3c3f-415b-b416-6ad989ecc8cb}; !- Building Unit Name

OS:Surface,
  {81fce146-d240-4ebc-8946-46e5242af54c}, !- Handle
  Surface 12,                             !- Name
  Floor,                                  !- Surface Type
  ,                                       !- Construction Name
  {1571f01a-a927-4730-ba09-c963a22dfdb5}, !- Space Name
  Surface,                                !- Outside Boundary Condition
  {15209d01-46d8-4e30-b621-384fb838f650}, !- Outside Boundary Condition Object
  NoSun,                                  !- Sun Exposure
  NoWind,                                 !- Wind Exposure
  ,                                       !- View Factor to Ground
  ,                                       !- Number of Vertices
  4.572, -9.144, 0,                       !- X,Y,Z Vertex 1 {m}
  4.572, 0, 0,                            !- X,Y,Z Vertex 2 {m}
  9.144, 0, 0,                            !- X,Y,Z Vertex 3 {m}
  9.144, -9.144, 0;                       !- X,Y,Z Vertex 4 {m}

OS:Surface,
  {87082114-e885-4763-9cc0-c8914cc1de85}, !- Handle
  Surface 13,                             !- Name
  Wall,                                   !- Surface Type
  ,                                       !- Construction Name
  {1571f01a-a927-4730-ba09-c963a22dfdb5}, !- Space Name
  Surface,                                !- Outside Boundary Condition
  {a4cd7ab2-2da5-4364-8ddb-ff3d4406301c}, !- Outside Boundary Condition Object
  NoSun,                                  !- Sun Exposure
  NoWind,                                 !- Wind Exposure
  ,                                       !- View Factor to Ground
  ,                                       !- Number of Vertices
  4.572, 0, 2.4384,                       !- X,Y,Z Vertex 1 {m}
  4.572, 0, 0,                            !- X,Y,Z Vertex 2 {m}
  4.572, -9.144, 0,                       !- X,Y,Z Vertex 3 {m}
  4.572, -9.144, 2.4384;                  !- X,Y,Z Vertex 4 {m}

OS:Surface,
  {7f416c00-e682-44ec-b990-1f9b78f03b7b}, !- Handle
  Surface 14,                             !- Name
  Wall,                                   !- Surface Type
  ,                                       !- Construction Name
  {1571f01a-a927-4730-ba09-c963a22dfdb5}, !- Space Name
  Outdoors,                               !- Outside Boundary Condition
  ,                                       !- Outside Boundary Condition Object
  SunExposed,                             !- Sun Exposure
  WindExposed,                            !- Wind Exposure
  ,                                       !- View Factor to Ground
  ,                                       !- Number of Vertices
  9.144, 0, 2.4384,                       !- X,Y,Z Vertex 1 {m}
  9.144, 0, 0,                            !- X,Y,Z Vertex 2 {m}
  4.572, 0, 0,                            !- X,Y,Z Vertex 3 {m}
  4.572, 0, 2.4384;                       !- X,Y,Z Vertex 4 {m}

OS:Surface,
  {2ca946da-c6b3-4a9e-99b8-e5b5476f9690}, !- Handle
  Surface 15,                             !- Name
  Wall,                                   !- Surface Type
  ,                                       !- Construction Name
  {1571f01a-a927-4730-ba09-c963a22dfdb5}, !- Space Name
  Outdoors,                               !- Outside Boundary Condition
  ,                                       !- Outside Boundary Condition Object
  SunExposed,                             !- Sun Exposure
  WindExposed,                            !- Wind Exposure
  ,                                       !- View Factor to Ground
  ,                                       !- Number of Vertices
  4.572, -9.144, 2.4384,                  !- X,Y,Z Vertex 1 {m}
  4.572, -9.144, 0,                       !- X,Y,Z Vertex 2 {m}
  9.144, -9.144, 0,                       !- X,Y,Z Vertex 3 {m}
  9.144, -9.144, 2.4384;                  !- X,Y,Z Vertex 4 {m}

OS:Surface,
  {08730863-5cbd-4213-837c-edf1e37219e7}, !- Handle
  Surface 16,                             !- Name
  Wall,                                   !- Surface Type
  ,                                       !- Construction Name
  {1571f01a-a927-4730-ba09-c963a22dfdb5}, !- Space Name
  Surface,                                !- Outside Boundary Condition
  {3bc3fa7a-0ed5-4b39-8bf6-0adb2dce7e1f}, !- Outside Boundary Condition Object
  NoSun,                                  !- Sun Exposure
  NoWind,                                 !- Wind Exposure
  ,                                       !- View Factor to Ground
  ,                                       !- Number of Vertices
  9.144, -9.144, 2.4384,                  !- X,Y,Z Vertex 1 {m}
  9.144, -9.144, 0,                       !- X,Y,Z Vertex 2 {m}
  9.144, 0, 0,                            !- X,Y,Z Vertex 3 {m}
  9.144, 0, 2.4384;                       !- X,Y,Z Vertex 4 {m}

OS:Surface,
  {40807663-5b10-46cd-86dd-9a681ab104bf}, !- Handle
  Surface 17,                             !- Name
  RoofCeiling,                            !- Surface Type
  ,                                       !- Construction Name
  {1571f01a-a927-4730-ba09-c963a22dfdb5}, !- Space Name
  Surface,                                !- Outside Boundary Condition
  {4093c14e-b6ff-4d72-8922-76c668e2ae7d}, !- Outside Boundary Condition Object
  NoSun,                                  !- Sun Exposure
  NoWind,                                 !- Wind Exposure
  ,                                       !- View Factor to Ground
  ,                                       !- Number of Vertices
  9.144, -9.144, 2.4384,                  !- X,Y,Z Vertex 1 {m}
  9.144, 0, 2.4384,                       !- X,Y,Z Vertex 2 {m}
  4.572, 0, 2.4384,                       !- X,Y,Z Vertex 3 {m}
  4.572, -9.144, 2.4384;                  !- X,Y,Z Vertex 4 {m}

OS:ThermalZone,
  {be0517d7-9318-4a3f-9b02-eaa4165aa824}, !- Handle
  living zone|unit 3,                     !- Name
  ,                                       !- Multiplier
  ,                                       !- Ceiling Height {m}
  ,                                       !- Volume {m3}
  ,                                       !- Floor Area {m2}
  ,                                       !- Zone Inside Convection Algorithm
  ,                                       !- Zone Outside Convection Algorithm
  ,                                       !- Zone Conditioning Equipment List Name
  {ee123749-2168-426c-8f43-a534ca7b5857}, !- Zone Air Inlet Port List
  {a135e520-0fad-40d3-b3ce-2351ace3b8f7}, !- Zone Air Exhaust Port List
  {a722640f-832d-45cd-b5cf-322123b36deb}, !- Zone Air Node Name
  {3b5e2219-fc03-4f13-b264-697cbc3d6106}, !- Zone Return Air Port List
  ,                                       !- Primary Daylighting Control Name
  ,                                       !- Fraction of Zone Controlled by Primary Daylighting Control
  ,                                       !- Secondary Daylighting Control Name
  ,                                       !- Fraction of Zone Controlled by Secondary Daylighting Control
  ,                                       !- Illuminance Map Name
  ,                                       !- Group Rendering Name
  ,                                       !- Thermostat Name
  No;                                     !- Use Ideal Air Loads

OS:Node,
  {f7faabe8-e0e6-42c5-9517-c6150e1a707f}, !- Handle
  Node 3,                                 !- Name
  {a722640f-832d-45cd-b5cf-322123b36deb}, !- Inlet Port
  ;                                       !- Outlet Port

OS:Connection,
  {a722640f-832d-45cd-b5cf-322123b36deb}, !- Handle
  {851f356b-930d-48bf-88b2-9c87edf18345}, !- Name
  {be0517d7-9318-4a3f-9b02-eaa4165aa824}, !- Source Object
  11,                                     !- Outlet Port
  {f7faabe8-e0e6-42c5-9517-c6150e1a707f}, !- Target Object
  2;                                      !- Inlet Port

OS:PortList,
  {ee123749-2168-426c-8f43-a534ca7b5857}, !- Handle
  {5bdeab7a-e39f-4e8e-9be4-643ff35b6fad}, !- Name
  {be0517d7-9318-4a3f-9b02-eaa4165aa824}; !- HVAC Component

OS:PortList,
  {a135e520-0fad-40d3-b3ce-2351ace3b8f7}, !- Handle
  {2e7e4f64-bb8c-4763-bca6-0bbb3df2a3cd}, !- Name
  {be0517d7-9318-4a3f-9b02-eaa4165aa824}; !- HVAC Component

OS:PortList,
  {3b5e2219-fc03-4f13-b264-697cbc3d6106}, !- Handle
  {76e39cf9-b265-4ff7-bf43-4569adb74de9}, !- Name
  {be0517d7-9318-4a3f-9b02-eaa4165aa824}; !- HVAC Component

OS:Sizing:Zone,
  {3068fa2b-0a51-4c78-8eb4-db5c8ff2d65f}, !- Handle
  {be0517d7-9318-4a3f-9b02-eaa4165aa824}, !- Zone or ZoneList Name