!- NOTE: Auto-generated from /test/osw_files/SFA_4units_1story_SL_FA.osw

OS:Version,
  {2607d300-cda6-4ec6-8d01-39c2ae8b6127}, !- Handle
  2.9.1;                                  !- Version Identifier

OS:SimulationControl,
  {9bbe84b5-2fe9-4055-975d-dda9ed9041e1}, !- Handle
  ,                                       !- Do Zone Sizing Calculation
  ,                                       !- Do System Sizing Calculation
  ,                                       !- Do Plant Sizing Calculation
  No;                                     !- Run Simulation for Sizing Periods

OS:Timestep,
  {17024110-a67c-4725-9ad8-e2576c837ce9}, !- Handle
  6;                                      !- Number of Timesteps per Hour

OS:ShadowCalculation,
  {37357d67-e6cf-4caa-8647-ec2836fe3d8d}, !- Handle
  20,                                     !- Calculation Frequency
  200;                                    !- Maximum Figures in Shadow Overlap Calculations

OS:SurfaceConvectionAlgorithm:Outside,
  {e1e31d21-9cf8-4101-be5f-603c78e76a67}, !- Handle
  DOE-2;                                  !- Algorithm

OS:SurfaceConvectionAlgorithm:Inside,
  {6e01d0a2-c68b-4a24-b1ff-9be233de878e}, !- Handle
  TARP;                                   !- Algorithm

OS:ZoneCapacitanceMultiplier:ResearchSpecial,
  {8c0b6b9e-d428-4ad7-a605-c34f39bbe218}, !- Handle
  ,                                       !- Temperature Capacity Multiplier
  15,                                     !- Humidity Capacity Multiplier
  ;                                       !- Carbon Dioxide Capacity Multiplier

OS:RunPeriod,
  {d2e33ffa-2ca7-4d46-8456-987e5ad6ac56}, !- Handle
  Run Period 1,                           !- Name
  1,                                      !- Begin Month
  1,                                      !- Begin Day of Month
  12,                                     !- End Month
  31,                                     !- End Day of Month
  ,                                       !- Use Weather File Holidays and Special Days
  ,                                       !- Use Weather File Daylight Saving Period
  ,                                       !- Apply Weekend Holiday Rule
  ,                                       !- Use Weather File Rain Indicators
  ,                                       !- Use Weather File Snow Indicators
  ;                                       !- Number of Times Runperiod to be Repeated

OS:YearDescription,
  {aa78f3bb-0b24-4568-93cf-c8bb951f9900}, !- Handle
  2007,                                   !- Calendar Year
  ,                                       !- Day of Week for Start Day
  ;                                       !- Is Leap Year

OS:ThermalZone,
  {e8ac5d08-d984-4d20-bef2-2a6ccf27cf3e}, !- Handle
  living zone,                            !- Name
  ,                                       !- Multiplier
  ,                                       !- Ceiling Height {m}
  ,                                       !- Volume {m3}
  ,                                       !- Floor Area {m2}
  ,                                       !- Zone Inside Convection Algorithm
  ,                                       !- Zone Outside Convection Algorithm
  ,                                       !- Zone Conditioning Equipment List Name
  {9f1f87fc-e7e9-4238-8bff-ea6a9353f2d2}, !- Zone Air Inlet Port List
  {135c0dc2-c4c4-4fd2-bdd7-ca6ec2743e54}, !- Zone Air Exhaust Port List
  {45968652-253d-44fd-849a-9d0af6127625}, !- Zone Air Node Name
  {6fed6882-645e-4321-8ae5-9e70e2410030}, !- Zone Return Air Port List
  ,                                       !- Primary Daylighting Control Name
  ,                                       !- Fraction of Zone Controlled by Primary Daylighting Control
  ,                                       !- Secondary Daylighting Control Name
  ,                                       !- Fraction of Zone Controlled by Secondary Daylighting Control
  ,                                       !- Illuminance Map Name
  ,                                       !- Group Rendering Name
  ,                                       !- Thermostat Name
  No;                                     !- Use Ideal Air Loads

OS:Node,
  {78694df6-08e8-4dd6-9382-6abee826b4c8}, !- Handle
  Node 1,                                 !- Name
  {45968652-253d-44fd-849a-9d0af6127625}, !- Inlet Port
  ;                                       !- Outlet Port

OS:Connection,
  {45968652-253d-44fd-849a-9d0af6127625}, !- Handle
  {6660ef23-9382-4379-923c-0fbc47ea0dfe}, !- Name
  {e8ac5d08-d984-4d20-bef2-2a6ccf27cf3e}, !- Source Object
  11,                                     !- Outlet Port
  {78694df6-08e8-4dd6-9382-6abee826b4c8}, !- Target Object
  2;                                      !- Inlet Port

OS:PortList,
  {9f1f87fc-e7e9-4238-8bff-ea6a9353f2d2}, !- Handle
  {68469a4c-d85b-4834-a7d3-8301c6af5ee3}, !- Name
  {e8ac5d08-d984-4d20-bef2-2a6ccf27cf3e}; !- HVAC Component

OS:PortList,
  {135c0dc2-c4c4-4fd2-bdd7-ca6ec2743e54}, !- Handle
  {52bbb322-b8c6-4001-a218-892dd0e5065f}, !- Name
  {e8ac5d08-d984-4d20-bef2-2a6ccf27cf3e}; !- HVAC Component

OS:PortList,
  {6fed6882-645e-4321-8ae5-9e70e2410030}, !- Handle
  {6b114576-4d3b-4f47-bdae-9ebf95603efe}, !- Name
  {e8ac5d08-d984-4d20-bef2-2a6ccf27cf3e}; !- HVAC Component

OS:Sizing:Zone,
  {91b014f8-45ca-4492-8d36-f33ce90d7375}, !- Handle
  {e8ac5d08-d984-4d20-bef2-2a6ccf27cf3e}, !- Zone or ZoneList Name
  SupplyAirTemperature,                   !- Zone Cooling Design Supply Air Temperature Input Method
  14,                                     !- Zone Cooling Design Supply Air Temperature {C}
  11.11,                                  !- Zone Cooling Design Supply Air Temperature Difference {deltaC}
  SupplyAirTemperature,                   !- Zone Heating Design Supply Air Temperature Input Method
  40,                                     !- Zone Heating Design Supply Air Temperature {C}
  11.11,                                  !- Zone Heating Design Supply Air Temperature Difference {deltaC}
  0.0085,                                 !- Zone Cooling Design Supply Air Humidity Ratio {kg-H2O/kg-air}
  0.008,                                  !- Zone Heating Design Supply Air Humidity Ratio {kg-H2O/kg-air}
  ,                                       !- Zone Heating Sizing Factor
  ,                                       !- Zone Cooling Sizing Factor
  DesignDay,                              !- Cooling Design Air Flow Method
  ,                                       !- Cooling Design Air Flow Rate {m3/s}
  ,                                       !- Cooling Minimum Air Flow per Zone Floor Area {m3/s-m2}
  ,                                       !- Cooling Minimum Air Flow {m3/s}
  ,                                       !- Cooling Minimum Air Flow Fraction
  DesignDay,                              !- Heating Design Air Flow Method
  ,                                       !- Heating Design Air Flow Rate {m3/s}
  ,                                       !- Heating Maximum Air Flow per Zone Floor Area {m3/s-m2}
  ,                                       !- Heating Maximum Air Flow {m3/s}
  ,                                       !- Heating Maximum Air Flow Fraction
  ,                                       !- Design Zone Air Distribution Effectiveness in Cooling Mode
  ,                                       !- Design Zone Air Distribution Effectiveness in Heating Mode
  No,                                     !- Account for Dedicated Outdoor Air System
  NeutralSupplyAir,                       !- Dedicated Outdoor Air System Control Strategy
  autosize,                               !- Dedicated Outdoor Air Low Setpoint Temperature for Design {C}
  autosize;                               !- Dedicated Outdoor Air High Setpoint Temperature for Design {C}

OS:ZoneHVAC:EquipmentList,
  {eb1e0ffc-76fd-41a0-b6fc-cd7f5bf963ae}, !- Handle
  Zone HVAC Equipment List 1,             !- Name
  {e8ac5d08-d984-4d20-bef2-2a6ccf27cf3e}; !- Thermal Zone

OS:Space,
  {b55a9459-19a0-4649-bbbf-b3787d150c18}, !- Handle
  living space,                           !- Name
  {4092da2d-8479-4979-a6b1-8ffbcd14d3b4}, !- Space Type Name
  ,                                       !- Default Construction Set Name
  ,                                       !- Default Schedule Set Name
  ,                                       !- Direction of Relative North {deg}
  ,                                       !- X Origin {m}
  ,                                       !- Y Origin {m}
  ,                                       !- Z Origin {m}
  ,                                       !- Building Story Name
  {e8ac5d08-d984-4d20-bef2-2a6ccf27cf3e}, !- Thermal Zone Name
  ,                                       !- Part of Total Floor Area
  ,                                       !- Design Specification Outdoor Air Object Name
  {2f821d37-89d2-485c-8720-742d46f8163a}; !- Building Unit Name

OS:Surface,
  {92a49953-cc7a-4b5f-8174-7f6a0f7494fb}, !- Handle
  Surface 1,                              !- Name
  Floor,                                  !- Surface Type
  ,                                       !- Construction Name
  {b55a9459-19a0-4649-bbbf-b3787d150c18}, !- Space Name
  Foundation,                             !- Outside Boundary Condition
  ,                                       !- Outside Boundary Condition Object
  NoSun,                                  !- Sun Exposure
  NoWind,                                 !- Wind Exposure
  ,                                       !- View Factor to Ground
  ,                                       !- Number of Vertices
  0, -9.144, 0,                           !- X,Y,Z Vertex 1 {m}
  0, 0, 0,                                !- X,Y,Z Vertex 2 {m}
  4.572, 0, 0,                            !- X,Y,Z Vertex 3 {m}
  4.572, -9.144, 0;                       !- X,Y,Z Vertex 4 {m}

OS:Surface,
  {8afcd46a-e8d5-447a-abbe-839bd6270c81}, !- Handle
  Surface 2,                              !- Name
  Wall,                                   !- Surface Type
  ,                                       !- Construction Name
  {b55a9459-19a0-4649-bbbf-b3787d150c18}, !- Space Name
  Outdoors,                               !- Outside Boundary Condition
  ,                                       !- Outside Boundary Condition Object
  SunExposed,                             !- Sun Exposure
  WindExposed,                            !- Wind Exposure
  ,                                       !- View Factor to Ground
  ,                                       !- Number of Vertices
  0, 0, 2.4384,                           !- X,Y,Z Vertex 1 {m}
  0, 0, 0,                                !- X,Y,Z Vertex 2 {m}
  0, -9.144, 0,                           !- X,Y,Z Vertex 3 {m}
  0, -9.144, 2.4384;                      !- X,Y,Z Vertex 4 {m}

OS:Surface,
  {0b0cd28e-c1d3-4e6f-91a0-d0cd125ce40a}, !- Handle
  Surface 3,                              !- Name
  Wall,                                   !- Surface Type
  ,                                       !- Construction Name
  {b55a9459-19a0-4649-bbbf-b3787d150c18}, !- Space Name
  Outdoors,                               !- Outside Boundary Condition
  ,                                       !- Outside Boundary Condition Object
  SunExposed,                             !- Sun Exposure
  WindExposed,                            !- Wind Exposure
  ,                                       !- View Factor to Ground
  ,                                       !- Number of Vertices
  4.572, 0, 2.4384,                       !- X,Y,Z Vertex 1 {m}
  4.572, 0, 0,                            !- X,Y,Z Vertex 2 {m}
  0, 0, 0,                                !- X,Y,Z Vertex 3 {m}
  0, 0, 2.4384;                           !- X,Y,Z Vertex 4 {m}

OS:Surface,
  {8772d28e-eeea-47f6-b2d3-d0e1d7060c34}, !- Handle
  Surface 4,                              !- Name
  Wall,                                   !- Surface Type
  ,                                       !- Construction Name
  {b55a9459-19a0-4649-bbbf-b3787d150c18}, !- Space Name
  Surface,                                !- Outside Boundary Condition
  {89043484-edaf-4467-ad36-d624c315ca36}, !- Outside Boundary Condition Object
  NoSun,                                  !- Sun Exposure
  NoWind,                                 !- Wind Exposure
  ,                                       !- View Factor to Ground
  ,                                       !- Number of Vertices
  4.572, -9.144, 2.4384,                  !- X,Y,Z Vertex 1 {m}
  4.572, -9.144, 0,                       !- X,Y,Z Vertex 2 {m}
  4.572, 0, 0,                            !- X,Y,Z Vertex 3 {m}
  4.572, 0, 2.4384;                       !- X,Y,Z Vertex 4 {m}

OS:Surface,
  {fb285842-d7ff-4d53-a91f-1454b7874576}, !- Handle
  Surface 5,                              !- Name
  Wall,                                   !- Surface Type
  ,                                       !- Construction Name
  {b55a9459-19a0-4649-bbbf-b3787d150c18}, !- Space Name
  Outdoors,                               !- Outside Boundary Condition
  ,                                       !- Outside Boundary Condition Object
  SunExposed,                             !- Sun Exposure
  WindExposed,                            !- Wind Exposure
  ,                                       !- View Factor to Ground
  ,                                       !- Number of Vertices
  0, -9.144, 2.4384,                      !- X,Y,Z Vertex 1 {m}
  0, -9.144, 0,                           !- X,Y,Z Vertex 2 {m}
  4.572, -9.144, 0,                       !- X,Y,Z Vertex 3 {m}
  4.572, -9.144, 2.4384;                  !- X,Y,Z Vertex 4 {m}

OS:Surface,
  {7a5514bf-4172-46d2-8de1-fe73c4dd9ee9}, !- Handle
  Surface 6,                              !- Name
  RoofCeiling,                            !- Surface Type
  ,                                       !- Construction Name
  {b55a9459-19a0-4649-bbbf-b3787d150c18}, !- Space Name
  Surface,                                !- Outside Boundary Condition
  {7554824b-bada-4f95-801d-e4d023f76abd}, !- Outside Boundary Condition Object
  NoSun,                                  !- Sun Exposure
  NoWind,                                 !- Wind Exposure
  ,                                       !- View Factor to Ground
  ,                                       !- Number of Vertices
  4.572, -9.144, 2.4384,                  !- X,Y,Z Vertex 1 {m}
  4.572, 0, 2.4384,                       !- X,Y,Z Vertex 2 {m}
  0, 0, 2.4384,                           !- X,Y,Z Vertex 3 {m}
  0, -9.144, 2.4384;                      !- X,Y,Z Vertex 4 {m}

OS:SpaceType,
  {4092da2d-8479-4979-a6b1-8ffbcd14d3b4}, !- Handle
  Space Type 1,                           !- Name
  ,                                       !- Default Construction Set Name
  ,                                       !- Default Schedule Set Name
  ,                                       !- Group Rendering Name
  ,                                       !- Design Specification Outdoor Air Object Name
  ,                                       !- Standards Template
  ,                                       !- Standards Building Type
  living;                                 !- Standards Space Type

OS:Surface,
  {7554824b-bada-4f95-801d-e4d023f76abd}, !- Handle
  Surface 7,                              !- Name
  Floor,                                  !- Surface Type
  ,                                       !- Construction Name
  {8c79f3a5-4854-4248-aabb-02774dcb56d5}, !- Space Name
  Surface,                                !- Outside Boundary Condition
  {7a5514bf-4172-46d2-8de1-fe73c4dd9ee9}, !- Outside Boundary Condition Object
  NoSun,                                  !- Sun Exposure
  NoWind,                                 !- Wind Exposure
  ,                                       !- View Factor to Ground
  ,                                       !- Number of Vertices
  0, -9.144, 2.4384,                      !- X,Y,Z Vertex 1 {m}
  0, 0, 2.4384,                           !- X,Y,Z Vertex 2 {m}
  4.572, 0, 2.4384,                       !- X,Y,Z Vertex 3 {m}
  4.572, -9.144, 2.4384;                  !- X,Y,Z Vertex 4 {m}

OS:Surface,
  {14bffd8b-1083-423c-94b0-7241b73dea0c}, !- Handle
  Surface 8,                              !- Name
  RoofCeiling,                            !- Surface Type
  ,                                       !- Construction Name
  {8c79f3a5-4854-4248-aabb-02774dcb56d5}, !- Space Name
  Outdoors,                               !- Outside Boundary Condition
  ,                                       !- Outside Boundary Condition Object
  SunExposed,                             !- Sun Exposure
  WindExposed,                            !- Wind Exposure
  ,                                       !- View Factor to Ground
  ,                                       !- Number of Vertices
  2.286, 0, 3.5814,                       !- X,Y,Z Vertex 1 {m}
  0, 0, 2.4384,                           !- X,Y,Z Vertex 2 {m}
  0, -9.144, 2.4384,                      !- X,Y,Z Vertex 3 {m}
  2.286, -9.144, 3.5814;                  !- X,Y,Z Vertex 4 {m}

OS:Surface,
  {52c757e2-7fb7-41aa-9190-0e426e01cbfd}, !- Handle
  Surface 9,                              !- Name
  RoofCeiling,                            !- Surface Type
  ,                                       !- Construction Name
  {8c79f3a5-4854-4248-aabb-02774dcb56d5}, !- Space Name
  Outdoors,                               !- Outside Boundary Condition
  ,                                       !- Outside Boundary Condition Object
  SunExposed,                             !- Sun Exposure
  WindExposed,                            !- Wind Exposure
  ,                                       !- View Factor to Ground
  ,                                       !- Number of Vertices
  2.286, -9.144, 3.5814,                  !- X,Y,Z Vertex 1 {m}
  4.572, -9.144, 2.4384,                  !- X,Y,Z Vertex 2 {m}
  4.572, 0, 2.4384,                       !- X,Y,Z Vertex 3 {m}
  2.286, 0, 3.5814;                       !- X,Y,Z Vertex 4 {m}

OS:Surface,
  {9478276a-74f4-4023-9c4d-baef94cad0ac}, !- Handle
  Surface 10,                             !- Name
  Wall,                                   !- Surface Type
  ,                                       !- Construction Name
  {8c79f3a5-4854-4248-aabb-02774dcb56d5}, !- Space Name
  Outdoors,                               !- Outside Boundary Condition
  ,                                       !- Outside Boundary Condition Object
  SunExposed,                             !- Sun Exposure
  WindExposed,                            !- Wind Exposure
  ,                                       !- View Factor to Ground
  ,                                       !- Number of Vertices
  2.286, -9.144, 3.5814,                  !- X,Y,Z Vertex 1 {m}
  0, -9.144, 2.4384,                      !- X,Y,Z Vertex 2 {m}
  4.572, -9.144, 2.4384;                  !- X,Y,Z Vertex 3 {m}

OS:Surface,
  {32b91d86-73f9-4aa9-b148-7812e3e2a094}, !- Handle
  Surface 11,                             !- Name
  Wall,                                   !- Surface Type
  ,                                       !- Construction Name
  {8c79f3a5-4854-4248-aabb-02774dcb56d5}, !- Space Name
  Outdoors,                               !- Outside Boundary Condition
  ,                                       !- Outside Boundary Condition Object
  SunExposed,                             !- Sun Exposure
  WindExposed,                            !- Wind Exposure
  ,                                       !- View Factor to Ground
  ,                                       !- Number of Vertices
  2.286, 0, 3.5814,                       !- X,Y,Z Vertex 1 {m}
  4.572, 0, 2.4384,                       !- X,Y,Z Vertex 2 {m}
  0, 0, 2.4384;                           !- X,Y,Z Vertex 3 {m}

OS:Space,
  {8c79f3a5-4854-4248-aabb-02774dcb56d5}, !- Handle
  finished attic space,                   !- Name
  {4092da2d-8479-4979-a6b1-8ffbcd14d3b4}, !- Space Type Name
  ,                                       !- Default Construction Set Name
  ,                                       !- Default Schedule Set Name
  ,                                       !- Direction of Relative North {deg}
  ,                                       !- X Origin {m}
  ,                                       !- Y Origin {m}
  ,                                       !- Z Origin {m}
  ,                                       !- Building Story Name
  {e8ac5d08-d984-4d20-bef2-2a6ccf27cf3e}, !- Thermal Zone Name
  ,                                       !- Part of Total Floor Area
  ,                                       !- Design Specification Outdoor Air Object Name
  {2f821d37-89d2-485c-8720-742d46f8163a}; !- Building Unit Name

OS:ThermalZone,
  {ef89207a-af67-4fc6-9fa7-ebc4286199cd}, !- Handle
  living zone|unit 2,                     !- Name
  ,                                       !- Multiplier
  ,                                       !- Ceiling Height {m}
  ,                                       !- Volume {m3}
  ,                                       !- Floor Area {m2}
  ,                                       !- Zone Inside Convection Algorithm
  ,                                       !- Zone Outside Convection Algorithm
  ,                                       !- Zone Conditioning Equipment List Name
  {196d4888-3f63-4841-a13c-8ab6b80a60f1}, !- Zone Air Inlet Port List
  {151ecafd-ab13-40e0-86c4-0e4747d2b4e2}, !- Zone Air Exhaust Port List
  {fb62e61b-254a-4366-b1e7-c618280c0ea2}, !- Zone Air Node Name
  {cf10cf0e-cda2-4d9e-bff0-e6dd050360cf}, !- Zone Return Air Port List
  ,                                       !- Primary Daylighting Control Name
  ,                                       !- Fraction of Zone Controlled by Primary Daylighting Control
  ,                                       !- Secondary Daylighting Control Name
  ,                                       !- Fraction of Zone Controlled by Secondary Daylighting Control
  ,                                       !- Illuminance Map Name
  ,                                       !- Group Rendering Name
  ,                                       !- Thermostat Name
  No;                                     !- Use Ideal Air Loads

OS:Node,
  {96cd4e3c-da86-434e-a011-cd0ddffdf993}, !- Handle
  Node 2,                                 !- Name
  {fb62e61b-254a-4366-b1e7-c618280c0ea2}, !- Inlet Port
  ;                                       !- Outlet Port

OS:Connection,
  {fb62e61b-254a-4366-b1e7-c618280c0ea2}, !- Handle
  {fbf77f40-0c4a-4fac-b3aa-23cdcfadaf6b}, !- Name
  {ef89207a-af67-4fc6-9fa7-ebc4286199cd}, !- Source Object
  11,                                     !- Outlet Port
  {96cd4e3c-da86-434e-a011-cd0ddffdf993}, !- Target Object
  2;                                      !- Inlet Port

OS:PortList,
  {196d4888-3f63-4841-a13c-8ab6b80a60f1}, !- Handle
  {58feb294-a4d9-4734-905c-fd79e3f44a1f}, !- Name
  {ef89207a-af67-4fc6-9fa7-ebc4286199cd}; !- HVAC Component

OS:PortList,
  {151ecafd-ab13-40e0-86c4-0e4747d2b4e2}, !- Handle
  {d52a9809-3223-4ad4-b596-ebda906db258}, !- Name
  {ef89207a-af67-4fc6-9fa7-ebc4286199cd}; !- HVAC Component

OS:PortList,
  {cf10cf0e-cda2-4d9e-bff0-e6dd050360cf}, !- Handle
  {606f2e8c-9d8e-4a19-86c2-3cfcd0a61d3e}, !- Name
  {ef89207a-af67-4fc6-9fa7-ebc4286199cd}; !- HVAC Component

OS:Sizing:Zone,
  {398ee978-ee84-4991-bf8d-a5eb22fbda6f}, !- Handle
  {ef89207a-af67-4fc6-9fa7-ebc4286199cd}, !- Zone or ZoneList Name
  SupplyAirTemperature,                   !- Zone Cooling Design Supply Air Temperature Input Method
  14,                                     !- Zone Cooling Design Supply Air Temperature {C}
  11.11,                                  !- Zone Cooling Design Supply Air Temperature Difference {deltaC}
  SupplyAirTemperature,                   !- Zone Heating Design Supply Air Temperature Input Method
  40,                                     !- Zone Heating Design Supply Air Temperature {C}
  11.11,                                  !- Zone Heating Design Supply Air Temperature Difference {deltaC}
  0.0085,                                 !- Zone Cooling Design Supply Air Humidity Ratio {kg-H2O/kg-air}
  0.008,                                  !- Zone Heating Design Supply Air Humidity Ratio {kg-H2O/kg-air}
  ,                                       !- Zone Heating Sizing Factor
  ,                                       !- Zone Cooling Sizing Factor
  DesignDay,                              !- Cooling Design Air Flow Method
  ,                                       !- Cooling Design Air Flow Rate {m3/s}
  ,                                       !- Cooling Minimum Air Flow per Zone Floor Area {m3/s-m2}
  ,                                       !- Cooling Minimum Air Flow {m3/s}
  ,                                       !- Cooling Minimum Air Flow Fraction
  DesignDay,                              !- Heating Design Air Flow Method
  ,                                       !- Heating Design Air Flow Rate {m3/s}
  ,                                       !- Heating Maximum Air Flow per Zone Floor Area {m3/s-m2}
  ,                                       !- Heating Maximum Air Flow {m3/s}
  ,                                       !- Heating Maximum Air Flow Fraction
  ,                                       !- Design Zone Air Distribution Effectiveness in Cooling Mode
  ,                                       !- Design Zone Air Distribution Effectiveness in Heating Mode
  No,                                     !- Account for Dedicated Outdoor Air System
  NeutralSupplyAir,                       !- Dedicated Outdoor Air System Control Strategy
  autosize,                               !- Dedicated Outdoor Air Low Setpoint Temperature for Design {C}
  autosize;                               !- Dedicated Outdoor Air High Setpoint Temperature for Design {C}

OS:ZoneHVAC:EquipmentList,
  {6347fb34-e618-481b-8812-270d32880a34}, !- Handle
  Zone HVAC Equipment List 2,             !- Name
  {ef89207a-af67-4fc6-9fa7-ebc4286199cd}; !- Thermal Zone

OS:Space,
  {1c52bb87-5df0-4867-a6a1-bd3a7f0feeaf}, !- Handle
  living space|unit 2|story 1,            !- Name
  {4092da2d-8479-4979-a6b1-8ffbcd14d3b4}, !- Space Type Name
  ,                                       !- Default Construction Set Name
  ,                                       !- Default Schedule Set Name
  -0,                                     !- Direction of Relative North {deg}
  0,                                      !- X Origin {m}
  0,                                      !- Y Origin {m}
  0,                                      !- Z Origin {m}
  ,                                       !- Building Story Name
  {ef89207a-af67-4fc6-9fa7-ebc4286199cd}, !- Thermal Zone Name
  ,                                       !- Part of Total Floor Area
  ,                                       !- Design Specification Outdoor Air Object Name
  {d211b201-ecad-4b8f-a3db-057fe8bc1c44}; !- Building Unit Name

OS:Surface,
  {cca75838-bff7-4052-aecc-086c2e09c3cf}, !- Handle
  Surface 12,                             !- Name
  Floor,                                  !- Surface Type
  ,                                       !- Construction Name
  {1c52bb87-5df0-4867-a6a1-bd3a7f0feeaf}, !- Space Name
  Foundation,                             !- Outside Boundary Condition
  ,                                       !- Outside Boundary Condition Object
  NoSun,                                  !- Sun Exposure
  NoWind,                                 !- Wind Exposure
  ,                                       !- View Factor to Ground
  ,                                       !- Number of Vertices
  4.572, -9.144, 0,                       !- X,Y,Z Vertex 1 {m}
  4.572, 0, 0,                            !- X,Y,Z Vertex 2 {m}
  9.144, 0, 0,                            !- X,Y,Z Vertex 3 {m}
  9.144, -9.144, 0;                       !- X,Y,Z Vertex 4 {m}

OS:Surface,
  {89043484-edaf-4467-ad36-d624c315ca36}, !- Handle
  Surface 13,                             !- Name
  Wall,                                   !- Surface Type
  ,                                       !- Construction Name
  {1c52bb87-5df0-4867-a6a1-bd3a7f0feeaf}, !- Space Name
  Surface,                                !- Outside Boundary Condition
  {8772d28e-eeea-47f6-b2d3-d0e1d7060c34}, !- Outside Boundary Condition Object
  NoSun,                                  !- Sun Exposure
  NoWind,                                 !- Wind Exposure
  ,                                       !- View Factor to Ground
  ,                                       !- Number of Vertices
  4.572, 0, 2.4384,                       !- X,Y,Z Vertex 1 {m}
  4.572, 0, 0,                            !- X,Y,Z Vertex 2 {m}
  4.572, -9.144, 0,                       !- X,Y,Z Vertex 3 {m}
  4.572, -9.144, 2.4384;                  !- X,Y,Z Vertex 4 {m}

OS:Surface,
  {52b67582-c30d-4670-92be-cb2572731c4d}, !- Handle
  Surface 14,                             !- Name
  Wall,                                   !- Surface Type
  ,                                       !- Construction Name
  {1c52bb87-5df0-4867-a6a1-bd3a7f0feeaf}, !- Space Name
  Surface,                                !- Outside Boundary Condition
  {1ea21a6c-47a3-4da0-8672-fdd07e74f695}, !- Outside Boundary Condition Object
  NoSun,                                  !- Sun Exposure
  NoWind,                                 !- Wind Exposure
  ,                                       !- View Factor to Ground
  ,                                       !- Number of Vertices
  9.144, -9.144, 2.4384,                  !- X,Y,Z Vertex 1 {m}
  9.144, -9.144, 0,                       !- X,Y,Z Vertex 2 {m}
  9.144, 0, 0,                            !- X,Y,Z Vertex 3 {m}
  9.144, 0, 2.4384;                       !- X,Y,Z Vertex 4 {m}

OS:Surface,
  {6b6c7e84-bbbc-40f7-9937-9abae49927c3}, !- Handle
  Surface 15,                             !- Name
  RoofCeiling,                            !- Surface Type