!- NOTE: Auto-generated from /test/osw_files/SFA_4units_1story_SL_UA_3Beds_2Baths_Denver_Central_System_PTAC.osw

OS:Version,
  {46f361f5-2ff7-4b09-bd81-2cd996872fc5}, !- Handle
  2.9.0;                                  !- Version Identifier

OS:SimulationControl,
  {794d3b0d-50b6-4119-8207-5ded38562e07}, !- Handle
  ,                                       !- Do Zone Sizing Calculation
  ,                                       !- Do System Sizing Calculation
  ,                                       !- Do Plant Sizing Calculation
  Yes;                                    !- Run Simulation for Sizing Periods

OS:Timestep,
  {2da903fa-2446-4932-9faf-e46b2ace5ae3}, !- Handle
  6;                                      !- Number of Timesteps per Hour

OS:ShadowCalculation,
  {3986a0ec-4d00-4792-9806-b073c94b2588}, !- Handle
  20,                                     !- Calculation Frequency
  200;                                    !- Maximum Figures in Shadow Overlap Calculations

OS:SurfaceConvectionAlgorithm:Outside,
  {f5c774e6-d1a8-4472-88ee-e45f93534089}, !- Handle
  DOE-2;                                  !- Algorithm

OS:SurfaceConvectionAlgorithm:Inside,
  {ecd895a2-5c58-4fb0-9f3f-da43ffbc77ec}, !- Handle
  TARP;                                   !- Algorithm

OS:ZoneCapacitanceMultiplier:ResearchSpecial,
  {d4a9a383-27f7-4a07-ae4f-e2ea8857ac51}, !- Handle
  ,                                       !- Temperature Capacity Multiplier
  15,                                     !- Humidity Capacity Multiplier
  ;                                       !- Carbon Dioxide Capacity Multiplier

OS:RunPeriod,
  {6dc99461-833c-47ef-ab5d-829bb0abe555}, !- Handle
  Run Period 1,                           !- Name
  1,                                      !- Begin Month
  1,                                      !- Begin Day of Month
  12,                                     !- End Month
  31,                                     !- End Day of Month
  ,                                       !- Use Weather File Holidays and Special Days
  ,                                       !- Use Weather File Daylight Saving Period
  ,                                       !- Apply Weekend Holiday Rule
  ,                                       !- Use Weather File Rain Indicators
  ,                                       !- Use Weather File Snow Indicators
  ;                                       !- Number of Times Runperiod to be Repeated

OS:YearDescription,
  {a776369c-b8c4-4979-86e8-340d81dccb6a}, !- Handle
  2007,                                   !- Calendar Year
  ,                                       !- Day of Week for Start Day
  ;                                       !- Is Leap Year

OS:Building,
  {09f8f4f2-a7d5-4bc2-a68b-4173b92bd1a1}, !- Handle
  Building 1,                             !- Name
  ,                                       !- Building Sector Type
  0,                                      !- North Axis {deg}
  ,                                       !- Nominal Floor to Floor Height {m}
  ,                                       !- Space Type Name
  ,                                       !- Default Construction Set Name
  ,                                       !- Default Schedule Set Name
  1,                                      !- Standards Number of Stories
  1,                                      !- Standards Number of Above Ground Stories
  ,                                       !- Standards Template
  singlefamilyattached,                   !- Standards Building Type
  4;                                      !- Standards Number of Living Units

OS:AdditionalProperties,
  {7d8bc9a7-8bdc-4df7-95d0-6515d6354fde}, !- Handle
  {09f8f4f2-a7d5-4bc2-a68b-4173b92bd1a1}, !- Object Name
  num_units,                              !- Feature Name 1
  Integer,                                !- Feature Data Type 1
  4,                                      !- Feature Value 1
  has_rear_units,                         !- Feature Name 2
  Boolean,                                !- Feature Data Type 2
  false,                                  !- Feature Value 2
  horz_location,                          !- Feature Name 3
  String,                                 !- Feature Data Type 3
  Left,                                   !- Feature Value 3
  num_floors,                             !- Feature Name 4
  Integer,                                !- Feature Data Type 4
  1,                                      !- Feature Value 4
  has_hvac_flue,                          !- Feature Name 5
  Boolean,                                !- Feature Data Type 5
  true;                                   !- Feature Value 5

OS:ThermalZone,
  {3abf0452-e847-4a6b-9a41-8d8e32eab8a8}, !- Handle
  living zone,                            !- Name
  ,                                       !- Multiplier
  ,                                       !- Ceiling Height {m}
  ,                                       !- Volume {m3}
  ,                                       !- Floor Area {m2}
  ,                                       !- Zone Inside Convection Algorithm
  ,                                       !- Zone Outside Convection Algorithm
  ,                                       !- Zone Conditioning Equipment List Name
  {6258aa0b-c0ec-4ce4-be56-7c23ff79c3ea}, !- Zone Air Inlet Port List
  {b1052fb6-3af4-41e3-91c0-c399c5e08d2e}, !- Zone Air Exhaust Port List
  {ed5725a2-7ca6-4c50-bd9e-fe263d9b807a}, !- Zone Air Node Name
  {e5197b2f-45c9-455b-bf7f-2c2a2bbd3737}, !- Zone Return Air Port List
  ,                                       !- Primary Daylighting Control Name
  ,                                       !- Fraction of Zone Controlled by Primary Daylighting Control
  ,                                       !- Secondary Daylighting Control Name
  ,                                       !- Fraction of Zone Controlled by Secondary Daylighting Control
  ,                                       !- Illuminance Map Name
  ,                                       !- Group Rendering Name
  {1e3c0fb6-b208-4180-8487-31133dc6d398}, !- Thermostat Name
  No;                                     !- Use Ideal Air Loads

OS:Node,
  {0e356d30-a65d-4912-9697-d0a61e073415}, !- Handle
  Node 1,                                 !- Name
  {ed5725a2-7ca6-4c50-bd9e-fe263d9b807a}, !- Inlet Port
  ;                                       !- Outlet Port

OS:Connection,
  {ed5725a2-7ca6-4c50-bd9e-fe263d9b807a}, !- Handle
  {3cb3ed09-5db1-42a1-827c-e9d83f42db78}, !- Name
  {3abf0452-e847-4a6b-9a41-8d8e32eab8a8}, !- Source Object
  11,                                     !- Outlet Port
  {0e356d30-a65d-4912-9697-d0a61e073415}, !- Target Object
  2;                                      !- Inlet Port

OS:PortList,
  {6258aa0b-c0ec-4ce4-be56-7c23ff79c3ea}, !- Handle
  {b899655e-c2d1-4b51-ac97-bc034a25b66b}, !- Name
  {3abf0452-e847-4a6b-9a41-8d8e32eab8a8}, !- HVAC Component
  {7222f5e2-a3ae-42a2-aa34-03ca38183e52}; !- Port 1

OS:PortList,
  {b1052fb6-3af4-41e3-91c0-c399c5e08d2e}, !- Handle
  {6c8d54fd-a6c3-4e58-beb5-369843165843}, !- Name
  {3abf0452-e847-4a6b-9a41-8d8e32eab8a8}, !- HVAC Component
  {0e3ba4ce-bab1-426d-ab9e-189be0336bed}; !- Port 1

OS:PortList,
  {e5197b2f-45c9-455b-bf7f-2c2a2bbd3737}, !- Handle
  {400dfb34-c27e-4ff2-8ed6-546b8dff24d4}, !- Name
  {3abf0452-e847-4a6b-9a41-8d8e32eab8a8}; !- HVAC Component

OS:Sizing:Zone,
  {95fcefd1-123d-4b46-8830-6bc7f8ea3082}, !- Handle
  {3abf0452-e847-4a6b-9a41-8d8e32eab8a8}, !- Zone or ZoneList Name
  SupplyAirTemperature,                   !- Zone Cooling Design Supply Air Temperature Input Method
  13.8888888888889,                       !- Zone Cooling Design Supply Air Temperature {C}
  11.11,                                  !- Zone Cooling Design Supply Air Temperature Difference {deltaC}
  SupplyAirTemperature,                   !- Zone Heating Design Supply Air Temperature Input Method
  50.0000000000001,                       !- Zone Heating Design Supply Air Temperature {C}
  11.11,                                  !- Zone Heating Design Supply Air Temperature Difference {deltaC}
  0.008,                                  !- Zone Cooling Design Supply Air Humidity Ratio {kg-H2O/kg-air}
  0.008,                                  !- Zone Heating Design Supply Air Humidity Ratio {kg-H2O/kg-air}
  ,                                       !- Zone Heating Sizing Factor
  ,                                       !- Zone Cooling Sizing Factor
  DesignDay,                              !- Cooling Design Air Flow Method
  ,                                       !- Cooling Design Air Flow Rate {m3/s}
  ,                                       !- Cooling Minimum Air Flow per Zone Floor Area {m3/s-m2}
  ,                                       !- Cooling Minimum Air Flow {m3/s}
  ,                                       !- Cooling Minimum Air Flow Fraction
  DesignDay,                              !- Heating Design Air Flow Method
  ,                                       !- Heating Design Air Flow Rate {m3/s}
  ,                                       !- Heating Maximum Air Flow per Zone Floor Area {m3/s-m2}
  ,                                       !- Heating Maximum Air Flow {m3/s}
  ,                                       !- Heating Maximum Air Flow Fraction
  ,                                       !- Design Zone Air Distribution Effectiveness in Cooling Mode
  ,                                       !- Design Zone Air Distribution Effectiveness in Heating Mode
  No,                                     !- Account for Dedicated Outdoor Air System
  NeutralSupplyAir,                       !- Dedicated Outdoor Air System Control Strategy
  autosize,                               !- Dedicated Outdoor Air Low Setpoint Temperature for Design {C}
  autosize;                               !- Dedicated Outdoor Air High Setpoint Temperature for Design {C}

OS:ZoneHVAC:EquipmentList,
  {afc251e1-8f08-43d7-9ba3-17a7d2bf8a36}, !- Handle
  Zone HVAC Equipment List 1,             !- Name
  {3abf0452-e847-4a6b-9a41-8d8e32eab8a8}, !- Thermal Zone
  ,                                       !- Load Distribution Scheme
  {f870328b-7e51-41a6-9cbc-e3d8860748f1}, !- Zone Equipment 1
  1,                                      !- Zone Equipment Cooling Sequence 1
  1,                                      !- Zone Equipment Heating or No-Load Sequence 1
  ,                                       !- Zone Equipment Sequential Cooling Fraction Schedule Name 1
  ;                                       !- Zone Equipment Sequential Heating Fraction Schedule Name 1

OS:Space,
  {21ad2153-234e-40b4-b988-236f7f130c9d}, !- Handle
  living space,                           !- Name
  {64df0a97-b7f0-4027-a001-455953b05cd8}, !- Space Type Name
  ,                                       !- Default Construction Set Name
  ,                                       !- Default Schedule Set Name
  ,                                       !- Direction of Relative North {deg}
  ,                                       !- X Origin {m}
  ,                                       !- Y Origin {m}
  ,                                       !- Z Origin {m}
  ,                                       !- Building Story Name
  {3abf0452-e847-4a6b-9a41-8d8e32eab8a8}, !- Thermal Zone Name
  ,                                       !- Part of Total Floor Area
  ,                                       !- Design Specification Outdoor Air Object Name
  {7d1458e9-e42c-457b-99bb-ee2ddadc808d}; !- Building Unit Name

OS:Surface,
  {2f3ef624-cd31-4e18-bfa3-4e126d5f9e47}, !- Handle
  Surface 1,                              !- Name
  Floor,                                  !- Surface Type
  ,                                       !- Construction Name
  {21ad2153-234e-40b4-b988-236f7f130c9d}, !- Space Name
  Foundation,                             !- Outside Boundary Condition
  ,                                       !- Outside Boundary Condition Object
  NoSun,                                  !- Sun Exposure
  NoWind,                                 !- Wind Exposure
  ,                                       !- View Factor to Ground
  ,                                       !- Number of Vertices
  0, -12.9315688143396, 0,                !- X,Y,Z Vertex 1 {m}
  0, 0, 0,                                !- X,Y,Z Vertex 2 {m}
  6.46578440716979, 0, 0,                 !- X,Y,Z Vertex 3 {m}
  6.46578440716979, -12.9315688143396, 0; !- X,Y,Z Vertex 4 {m}

OS:Surface,
  {1d313c0a-b2f0-4654-b7c8-0ff02d0ff41e}, !- Handle
  Surface 2,                              !- Name
  Wall,                                   !- Surface Type
  ,                                       !- Construction Name
  {21ad2153-234e-40b4-b988-236f7f130c9d}, !- Space Name
  Outdoors,                               !- Outside Boundary Condition
  ,                                       !- Outside Boundary Condition Object
  SunExposed,                             !- Sun Exposure
  WindExposed,                            !- Wind Exposure
  ,                                       !- View Factor to Ground
  ,                                       !- Number of Vertices
  0, 0, 2.4384,                           !- X,Y,Z Vertex 1 {m}
  0, 0, 0,                                !- X,Y,Z Vertex 2 {m}
  0, -12.9315688143396, 0,                !- X,Y,Z Vertex 3 {m}
  0, -12.9315688143396, 2.4384;           !- X,Y,Z Vertex 4 {m}

OS:Surface,
  {9b22cae6-56c6-4d00-986b-c86502c06e26}, !- Handle
  Surface 3,                              !- Name
  Wall,                                   !- Surface Type
  ,                                       !- Construction Name
  {21ad2153-234e-40b4-b988-236f7f130c9d}, !- Space Name
  Outdoors,                               !- Outside Boundary Condition
  ,                                       !- Outside Boundary Condition Object
  SunExposed,                             !- Sun Exposure
  WindExposed,                            !- Wind Exposure
  ,                                       !- View Factor to Ground
  ,                                       !- Number of Vertices
  6.46578440716979, 0, 2.4384,            !- X,Y,Z Vertex 1 {m}
  6.46578440716979, 0, 0,                 !- X,Y,Z Vertex 2 {m}
  0, 0, 0,                                !- X,Y,Z Vertex 3 {m}
  0, 0, 2.4384;                           !- X,Y,Z Vertex 4 {m}

OS:Surface,
  {ea6777d7-f879-4218-aa05-4d204734ed1c}, !- Handle
  Surface 4,                              !- Name
  Wall,                                   !- Surface Type
  ,                                       !- Construction Name
  {21ad2153-234e-40b4-b988-236f7f130c9d}, !- Space Name
  Adiabatic,                              !- Outside Boundary Condition
  ,                                       !- Outside Boundary Condition Object
  NoSun,                                  !- Sun Exposure
  NoWind,                                 !- Wind Exposure
  ,                                       !- View Factor to Ground
  ,                                       !- Number of Vertices
  6.46578440716979, -12.9315688143396, 2.4384, !- X,Y,Z Vertex 1 {m}
  6.46578440716979, -12.9315688143396, 0, !- X,Y,Z Vertex 2 {m}
  6.46578440716979, 0, 0,                 !- X,Y,Z Vertex 3 {m}
  6.46578440716979, 0, 2.4384;            !- X,Y,Z Vertex 4 {m}

OS:Surface,
  {a79872dc-3f3f-435f-8a4a-c86a1242e426}, !- Handle
  Surface 5,                              !- Name
  Wall,                                   !- Surface Type
  ,                                       !- Construction Name
  {21ad2153-234e-40b4-b988-236f7f130c9d}, !- Space Name
  Outdoors,                               !- Outside Boundary Condition
  ,                                       !- Outside Boundary Condition Object
  SunExposed,                             !- Sun Exposure
  WindExposed,                            !- Wind Exposure
  ,                                       !- View Factor to Ground
  ,                                       !- Number of Vertices
  0, -12.9315688143396, 2.4384,           !- X,Y,Z Vertex 1 {m}
  0, -12.9315688143396, 0,                !- X,Y,Z Vertex 2 {m}
  6.46578440716979, -12.9315688143396, 0, !- X,Y,Z Vertex 3 {m}
  6.46578440716979, -12.9315688143396, 2.4384; !- X,Y,Z Vertex 4 {m}

OS:Surface,
  {3760bdc8-82ae-4633-aafd-1281909ea0a0}, !- Handle
  Surface 6,                              !- Name
  RoofCeiling,                            !- Surface Type
  ,                                       !- Construction Name
  {21ad2153-234e-40b4-b988-236f7f130c9d}, !- Space Name
  Surface,                                !- Outside Boundary Condition
  {09f3162e-988f-491b-9eff-590ffe262e44}, !- Outside Boundary Condition Object
  NoSun,                                  !- Sun Exposure
  NoWind,                                 !- Wind Exposure
  ,                                       !- View Factor to Ground
  ,                                       !- Number of Vertices
  6.46578440716979, -12.9315688143396, 2.4384, !- X,Y,Z Vertex 1 {m}
  6.46578440716979, 0, 2.4384,            !- X,Y,Z Vertex 2 {m}
  0, 0, 2.4384,                           !- X,Y,Z Vertex 3 {m}
  0, -12.9315688143396, 2.4384;           !- X,Y,Z Vertex 4 {m}

OS:SpaceType,
  {64df0a97-b7f0-4027-a001-455953b05cd8}, !- Handle
  Space Type 1,                           !- Name
  ,                                       !- Default Construction Set Name
  ,                                       !- Default Schedule Set Name
  ,                                       !- Group Rendering Name
  ,                                       !- Design Specification Outdoor Air Object Name
  ,                                       !- Standards Template
  ,                                       !- Standards Building Type
  living;                                 !- Standards Space Type

OS:Surface,
  {09f3162e-988f-491b-9eff-590ffe262e44}, !- Handle
  Surface 7,                              !- Name
  Floor,                                  !- Surface Type
  ,                                       !- Construction Name
  {76a41b7c-f6ad-440e-b74e-2a0a5f10ee77}, !- Space Name
  Surface,                                !- Outside Boundary Condition
  {3760bdc8-82ae-4633-aafd-1281909ea0a0}, !- Outside Boundary Condition Object
  NoSun,                                  !- Sun Exposure
  NoWind,                                 !- Wind Exposure
  ,                                       !- View Factor to Ground
  ,                                       !- Number of Vertices
  0, -12.9315688143396, 2.4384,           !- X,Y,Z Vertex 1 {m}
  0, 0, 2.4384,                           !- X,Y,Z Vertex 2 {m}
  6.46578440716979, 0, 2.4384,            !- X,Y,Z Vertex 3 {m}
  6.46578440716979, -12.9315688143396, 2.4384; !- X,Y,Z Vertex 4 {m}

OS:Surface,
  {19342899-a776-47d0-9b07-b212788bdb1c}, !- Handle
  Surface 8,                              !- Name
  RoofCeiling,                            !- Surface Type
  ,                                       !- Construction Name
  {76a41b7c-f6ad-440e-b74e-2a0a5f10ee77}, !- Space Name
  Outdoors,                               !- Outside Boundary Condition
  ,                                       !- Outside Boundary Condition Object
  SunExposed,                             !- Sun Exposure
  WindExposed,                            !- Wind Exposure
  ,                                       !- View Factor to Ground
  ,                                       !- Number of Vertices
  0, -6.46578440716979, 5.6712922035849,  !- X,Y,Z Vertex 1 {m}
  6.46578440716979, -6.46578440716979, 5.6712922035849, !- X,Y,Z Vertex 2 {m}
  6.46578440716979, 0, 2.4384,            !- X,Y,Z Vertex 3 {m}
  0, 0, 2.4384;                           !- X,Y,Z Vertex 4 {m}

OS:Surface,
  {22048e4c-3118-4f6d-903c-c270d57a06f2}, !- Handle
  Surface 9,                              !- Name
  RoofCeiling,                            !- Surface Type
  ,                                       !- Construction Name
  {76a41b7c-f6ad-440e-b74e-2a0a5f10ee77}, !- Space Name
  Outdoors,                               !- Outside Boundary Condition
  ,                                       !- Outside Boundary Condition Object
  SunExposed,                             !- Sun Exposure
  WindExposed,                            !- Wind Exposure
  ,                                       !- View Factor to Ground
  ,                                       !- Number of Vertices
  6.46578440716979, -6.46578440716979, 5.6712922035849, !- X,Y,Z Vertex 1 {m}
  0, -6.46578440716979, 5.6712922035849,  !- X,Y,Z Vertex 2 {m}
  0, -12.9315688143396, 2.4384,           !- X,Y,Z Vertex 3 {m}
  6.46578440716979, -12.9315688143396, 2.4384; !- X,Y,Z Vertex 4 {m}

OS:Surface,
  {29514aa3-c848-41fa-ac4e-3182d884d936}, !- Handle
  Surface 10,                             !- Name
  Wall,                                   !- Surface Type
  ,                                       !- Construction Name
  {76a41b7c-f6ad-440e-b74e-2a0a5f10ee77}, !- Space Name
  Outdoors,                               !- Outside Boundary Condition
  ,                                       !- Outside Boundary Condition Object
  SunExposed,                             !- Sun Exposure
  WindExposed,                            !- Wind Exposure
  ,                                       !- View Factor to Ground
  ,                                       !- Number of Vertices
  0, -6.46578440716979, 5.6712922035849,  !- X,Y,Z Vertex 1 {m}
  0, 0, 2.4384,                           !- X,Y,Z Vertex 2 {m}
  0, -12.9315688143396, 2.4384;           !- X,Y,Z Vertex 3 {m}

OS:Surface,
  {2835e220-9f6a-4648-8271-68c09526eb90}, !- Handle
  Surface 11,                             !- Name
  Wall,                                   !- Surface Type
  ,                                       !- Construction Name
  {76a41b7c-f6ad-440e-b74e-2a0a5f10ee77}, !- Space Name
  Adiabatic,                              !- Outside Boundary Condition
  ,                                       !- Outside Boundary Condition Object
  NoSun,                                  !- Sun Exposure
  NoWind,                                 !- Wind Exposure
  ,                                       !- View Factor to Ground
  ,                                       !- Number of Vertices
  6.46578440716979, -6.46578440716979, 5.6712922035849, !- X,Y,Z Vertex 1 {m}
  6.46578440716979, -12.9315688143396, 2.4384, !- X,Y,Z Vertex 2 {m}
  6.46578440716979, 0, 2.4384;            !- X,Y,Z Vertex 3 {m}

OS:Space,
  {76a41b7c-f6ad-440e-b74e-2a0a5f10ee77}, !- Handle
  unfinished attic space,                 !- Name
  {b61ec8bf-bf57-4146-b903-5b531464477b}, !- Space Type Name
  ,                                       !- Default Construction Set Name
  ,                                       !- Default Schedule Set Name
  ,                                       !- Direction of Relative North {deg}
  ,                                       !- X Origin {m}
  ,                                       !- Y Origin {m}
  ,                                       !- Z Origin {m}
  ,                                       !- Building Story Name
  {d6c32484-c0be-445a-b67a-8206af525be9}; !- Thermal Zone Name

OS:ThermalZone,
  {d6c32484-c0be-445a-b67a-8206af525be9}, !- Handle
  unfinished attic zone,                  !- Name
  ,                                       !- Multiplier
  ,                                       !- Ceiling Height {m}
  ,                                       !- Volume {m3}
  ,                                       !- Floor Area {m2}
  ,                                       !- Zone Inside Convection Algorithm
  ,                                       !- Zone Outside Convection Algorithm
  ,                                       !- Zone Conditioning Equipment List Name
  {2263ba08-09c1-45c3-91f8-9c12d7197797}, !- Zone Air Inlet Port List
  {ed893af7-9066-4d7b-8da0-9ea6b485d1a7}, !- Zone Air Exhaust Port List
  {9c2a2300-ee52-4817-b630-50f7a43481c7}, !- Zone Air Node Name
  {d708819a-19bc-4d48-a717-5756ea3e1ea7}, !- Zone Return Air Port List
  ,                                       !- Primary Daylighting Control Name
  ,                                       !- Fraction of Zone Controlled by Primary Daylighting Control
  ,                                       !- Secondary Daylighting Control Name
  ,                                       !- Fraction of Zone Controlled by Secondary Daylighting Control
  ,                                       !- Illuminance Map Name
  ,                                       !- Group Rendering Name
  ,                                       !- Thermostat Name
  No;                                     !- Use Ideal Air Loads

OS:Node,
  {1b793174-3d61-449c-b61c-4569b0f38fba}, !- Handle
  Node 2,                                 !- Name
  {9c2a2300-ee52-4817-b630-50f7a43481c7}, !- Inlet Port
  ;                                       !- Outlet Port

OS:Connection,
  {9c2a2300-ee52-4817-b630-50f7a43481c7}, !- Handle
  {d818174d-9ddb-4d35-8ad0-d70c60d80e07}, !- Name
  {d6c32484-c0be-445a-b67a-8206af525be9}, !- Source Object
  11,                                     !- Outlet Port
  {1b793174-3d61-449c-b61c-4569b0f38fba}, !- Target Object
  2;                                      !- Inlet Port

OS:PortList,
  {2263ba08-09c1-45c3-91f8-9c12d7197797}, !- Handle
  {657d10e8-3c0e-49c6-936b-ac56a3a1ed10}, !- Name
  {d6c32484-c0be-445a-b67a-8206af525be9}; !- HVAC Component

OS:PortList,
  {ed893af7-9066-4d7b-8da0-9ea6b485d1a7}, !- Handle
  {e4d43a3c-a4a9-4ca2-a81f-cf51758d18ac}, !- Name
  {d6c32484-c0be-445a-b67a-8206af525be9}; !- HVAC Component

OS:PortList,
  {d708819a-19bc-4d48-a717-5756ea3e1ea7}, !- Handle
  {dda5d043-a7a3-44d6-9737-dcefd88307a4}, !- Name
  {d6c32484-c0be-445a-b67a-8206af525be9}; !- HVAC Component

OS:Sizing:Zone,
  {6616c082-a0bb-440d-8d04-404c76a6da74}, !- Handle
  {d6c32484-c0be-445a-b67a-8206af525be9}, !- Zone or ZoneList Name
  SupplyAirTemperature,                   !- Zone Cooling Design Supply Air Temperature Input Method
  14,                                     !- Zone Cooling Design Supply Air Temperature {C}
  11.11,                                  !- Zone Cooling Design Supply Air Temperature Difference {deltaC}
  SupplyAirTemperature,                   !- Zone Heating Design Supply Air Temperature Input Method
  40,                                     !- Zone Heating Design Supply Air Temperature {C}
  11.11,                                  !- Zone Heating Design Supply Air Temperature Difference {deltaC}
  0.0085,                                 !- Zone Cooling Design Supply Air Humidity Ratio {kg-H2O/kg-air}
  0.008,                                  !- Zone Heating Design Supply Air Humidity Ratio {kg-H2O/kg-air}
  ,                                       !- Zone Heating Sizing Factor
  ,                                       !- Zone Cooling Sizing Factor
  DesignDay,                              !- Cooling Design Air Flow Method
  ,                                       !- Cooling Design Air Flow Rate {m3/s}
  ,                                       !- Cooling Minimum Air Flow per Zone Floor Area {m3/s-m2}
  ,                                       !- Cooling Minimum Air Flow {m3/s}
  ,                                       !- Cooling Minimum Air Flow Fraction
  DesignDay,                              !- Heating Design Air Flow Method
  ,                                       !- Heating Design Air Flow Rate {m3/s}
  ,                                       !- Heating Maximum Air Flow per Zone Floor Area {m3/s-m2}
  ,                                       !- Heating Maximum Air Flow {m3/s}
  ,                                       !- Heating Maximum Air Flow Fraction
  ,                                       !- Design Zone Air Distribution Effectiveness in Cooling Mode
  ,                                       !- Design Zone Air Distribution Effectiveness in Heating Mode
  No,                                     !- Account for Dedicated Outdoor Air System
  NeutralSupplyAir,                       !- Dedicated Outdoor Air System Control Strategy
  autosize,                               !- Dedicated Outdoor Air Low Setpoint Temperature for Design {C}
  autosize;                               !- Dedicated Outdoor Air High Setpoint Temperature for Design {C}

OS:ZoneHVAC:EquipmentList,
  {c4a32c47-a223-43fc-a3fd-f918b07abff4}, !- Handle
  Zone HVAC Equipment List 2,             !- Name
  {d6c32484-c0be-445a-b67a-8206af525be9}; !- Thermal Zone

OS:SpaceType,
  {b61ec8bf-bf57-4146-b903-5b531464477b}, !- Handle
  Space Type 2,                           !- Name
  ,                                       !- Default Construction Set Name
  ,                                       !- Default Schedule Set Name
  ,                                       !- Group Rendering Name
  ,                                       !- Design Specification Outdoor Air Object Name
  ,                                       !- Standards Template
  ,                                       !- Standards Building Type
  unfinished attic;                       !- Standards Space Type

OS:BuildingUnit,
  {7d1458e9-e42c-457b-99bb-ee2ddadc808d}, !- Handle
  unit 1,                                 !- Name
  ,                                       !- Rendering Color
  Residential;                            !- Building Unit Type

OS:AdditionalProperties,
  {e26b86cb-e7aa-4be7-bd1f-5893909b2832}, !- Handle
  {7d1458e9-e42c-457b-99bb-ee2ddadc808d}, !- Object Name
  NumberOfBedrooms,                       !- Feature Name 1
  Integer,                                !- Feature Data Type 1
  3,                                      !- Feature Value 1
  NumberOfBathrooms,                      !- Feature Name 2
  Double,                                 !- Feature Data Type 2
  2,                                      !- Feature Value 2
  NumberOfOccupants,                      !- Feature Name 3