!- NOTE: Auto-generated from /test/osw_files/SFA_8units_2story_SL_UA.osw

OS:Version,
  {6ae4471e-17fb-4df2-8ea5-f238f81c953c}, !- Handle
  2.9.0;                                  !- Version Identifier

OS:SimulationControl,
  {57db7702-49c0-41e0-8ccc-f42a9d338017}, !- Handle
  ,                                       !- Do Zone Sizing Calculation
  ,                                       !- Do System Sizing Calculation
  ,                                       !- Do Plant Sizing Calculation
  No;                                     !- Run Simulation for Sizing Periods

OS:Timestep,
  {d901e907-5250-45aa-9616-619070c82505}, !- Handle
  6;                                      !- Number of Timesteps per Hour

OS:ShadowCalculation,
  {17b399d0-3a23-4e83-abac-b9243337ceca}, !- Handle
  20,                                     !- Calculation Frequency
  200;                                    !- Maximum Figures in Shadow Overlap Calculations

OS:SurfaceConvectionAlgorithm:Outside,
  {cb78e39e-f523-4412-a9b7-210209a0fe7c}, !- Handle
  DOE-2;                                  !- Algorithm

OS:SurfaceConvectionAlgorithm:Inside,
  {edafc35d-608f-4725-804f-9ac40765037c}, !- Handle
  TARP;                                   !- Algorithm

OS:ZoneCapacitanceMultiplier:ResearchSpecial,
  {e2002b74-7502-405c-a174-24107b36c4db}, !- Handle
  ,                                       !- Temperature Capacity Multiplier
  15,                                     !- Humidity Capacity Multiplier
  ;                                       !- Carbon Dioxide Capacity Multiplier

OS:RunPeriod,
  {9c153c7b-f8d0-4156-b7b9-14961369d54a}, !- Handle
  Run Period 1,                           !- Name
  1,                                      !- Begin Month
  1,                                      !- Begin Day of Month
  12,                                     !- End Month
  31,                                     !- End Day of Month
  ,                                       !- Use Weather File Holidays and Special Days
  ,                                       !- Use Weather File Daylight Saving Period
  ,                                       !- Apply Weekend Holiday Rule
  ,                                       !- Use Weather File Rain Indicators
  ,                                       !- Use Weather File Snow Indicators
  ;                                       !- Number of Times Runperiod to be Repeated

OS:YearDescription,
  {e3522b72-9598-4e87-9459-256b57dd3981}, !- Handle
  2007,                                   !- Calendar Year
  ,                                       !- Day of Week for Start Day
  ;                                       !- Is Leap Year

OS:Building,
  {e96b79f7-9b72-4904-b8f9-dbed9c13f16f}, !- Handle
  Building 1,                             !- Name
  ,                                       !- Building Sector Type
  0,                                      !- North Axis {deg}
  ,                                       !- Nominal Floor to Floor Height {m}
  ,                                       !- Space Type Name
  ,                                       !- Default Construction Set Name
  ,                                       !- Default Schedule Set Name
  2,                                      !- Standards Number of Stories
  2,                                      !- Standards Number of Above Ground Stories
  ,                                       !- Standards Template
  singlefamilyattached,                   !- Standards Building Type
  8;                                      !- Standards Number of Living Units

OS:AdditionalProperties,
  {7b0c0243-e493-4f94-9448-8a4519a7dcd4}, !- Handle
  {e96b79f7-9b72-4904-b8f9-dbed9c13f16f}, !- Object Name
  num_units,                              !- Feature Name 1
  Integer,                                !- Feature Data Type 1
  8,                                      !- Feature Value 1
  has_rear_units,                         !- Feature Name 2
  Boolean,                                !- Feature Data Type 2
  false,                                  !- Feature Value 2
  horz_location,                          !- Feature Name 3
  String,                                 !- Feature Data Type 3
  Left,                                   !- Feature Value 3
  num_floors,                             !- Feature Name 4
  Integer,                                !- Feature Data Type 4
  2;                                      !- Feature Value 4

OS:ThermalZone,
  {01d925ba-553c-4e47-bf3d-b2450b2e2ba0}, !- Handle
  living zone,                            !- Name
  ,                                       !- Multiplier
  ,                                       !- Ceiling Height {m}
  ,                                       !- Volume {m3}
  ,                                       !- Floor Area {m2}
  ,                                       !- Zone Inside Convection Algorithm
  ,                                       !- Zone Outside Convection Algorithm
  ,                                       !- Zone Conditioning Equipment List Name
  {bab46736-847a-4d06-af69-02f25c6f3808}, !- Zone Air Inlet Port List
  {d4777eef-869f-438f-a877-9fb07a5f1c98}, !- Zone Air Exhaust Port List
  {afd5765b-6f96-41bd-a46b-19645b3de18a}, !- Zone Air Node Name
  {af04c9bc-822b-479b-ba2e-d5a7cefd268b}, !- Zone Return Air Port List
  ,                                       !- Primary Daylighting Control Name
  ,                                       !- Fraction of Zone Controlled by Primary Daylighting Control
  ,                                       !- Secondary Daylighting Control Name
  ,                                       !- Fraction of Zone Controlled by Secondary Daylighting Control
  ,                                       !- Illuminance Map Name
  ,                                       !- Group Rendering Name
  ,                                       !- Thermostat Name
  No;                                     !- Use Ideal Air Loads

OS:Node,
  {221aa097-289e-468c-ba91-25d1d9f8f788}, !- Handle
  Node 1,                                 !- Name
  {afd5765b-6f96-41bd-a46b-19645b3de18a}, !- Inlet Port
  ;                                       !- Outlet Port

OS:Connection,
  {afd5765b-6f96-41bd-a46b-19645b3de18a}, !- Handle
  {99524267-227b-441e-a8cc-4ffec476ee66}, !- Name
  {01d925ba-553c-4e47-bf3d-b2450b2e2ba0}, !- Source Object
  11,                                     !- Outlet Port
  {221aa097-289e-468c-ba91-25d1d9f8f788}, !- Target Object
  2;                                      !- Inlet Port

OS:PortList,
  {bab46736-847a-4d06-af69-02f25c6f3808}, !- Handle
  {5abed2c9-7870-4e90-959f-3fd460797b63}, !- Name
  {01d925ba-553c-4e47-bf3d-b2450b2e2ba0}; !- HVAC Component

OS:PortList,
  {d4777eef-869f-438f-a877-9fb07a5f1c98}, !- Handle
  {7b5be921-411c-41fb-bb64-866718970e89}, !- Name
  {01d925ba-553c-4e47-bf3d-b2450b2e2ba0}; !- HVAC Component

OS:PortList,
  {af04c9bc-822b-479b-ba2e-d5a7cefd268b}, !- Handle
  {ede88879-d328-4204-adb7-ef50b8813d6e}, !- Name
  {01d925ba-553c-4e47-bf3d-b2450b2e2ba0}; !- HVAC Component

OS:Sizing:Zone,
  {11ecf4f1-8adb-41dd-93c2-8d5e57d77b1b}, !- Handle
  {01d925ba-553c-4e47-bf3d-b2450b2e2ba0}, !- Zone or ZoneList Name
  SupplyAirTemperature,                   !- Zone Cooling Design Supply Air Temperature Input Method
  14,                                     !- Zone Cooling Design Supply Air Temperature {C}
  11.11,                                  !- Zone Cooling Design Supply Air Temperature Difference {deltaC}
  SupplyAirTemperature,                   !- Zone Heating Design Supply Air Temperature Input Method
  40,                                     !- Zone Heating Design Supply Air Temperature {C}
  11.11,                                  !- Zone Heating Design Supply Air Temperature Difference {deltaC}
  0.0085,                                 !- Zone Cooling Design Supply Air Humidity Ratio {kg-H2O/kg-air}
  0.008,                                  !- Zone Heating Design Supply Air Humidity Ratio {kg-H2O/kg-air}
  ,                                       !- Zone Heating Sizing Factor
  ,                                       !- Zone Cooling Sizing Factor
  DesignDay,                              !- Cooling Design Air Flow Method
  ,                                       !- Cooling Design Air Flow Rate {m3/s}
  ,                                       !- Cooling Minimum Air Flow per Zone Floor Area {m3/s-m2}
  ,                                       !- Cooling Minimum Air Flow {m3/s}
  ,                                       !- Cooling Minimum Air Flow Fraction
  DesignDay,                              !- Heating Design Air Flow Method
  ,                                       !- Heating Design Air Flow Rate {m3/s}
  ,                                       !- Heating Maximum Air Flow per Zone Floor Area {m3/s-m2}
  ,                                       !- Heating Maximum Air Flow {m3/s}
  ,                                       !- Heating Maximum Air Flow Fraction
  ,                                       !- Design Zone Air Distribution Effectiveness in Cooling Mode
  ,                                       !- Design Zone Air Distribution Effectiveness in Heating Mode
  No,                                     !- Account for Dedicated Outdoor Air System
  NeutralSupplyAir,                       !- Dedicated Outdoor Air System Control Strategy
  autosize,                               !- Dedicated Outdoor Air Low Setpoint Temperature for Design {C}
  autosize;                               !- Dedicated Outdoor Air High Setpoint Temperature for Design {C}

OS:ZoneHVAC:EquipmentList,
  {a130f7f6-f34f-40ac-b92a-e31aa3773db7}, !- Handle
  Zone HVAC Equipment List 1,             !- Name
  {01d925ba-553c-4e47-bf3d-b2450b2e2ba0}; !- Thermal Zone

OS:Space,
  {714ae1d3-3f8b-4b11-a881-565262dfda7f}, !- Handle
  living space,                           !- Name
  {09d4f916-b98e-4df9-9d42-ead18594e17f}, !- Space Type Name
  ,                                       !- Default Construction Set Name
  ,                                       !- Default Schedule Set Name
  ,                                       !- Direction of Relative North {deg}
  ,                                       !- X Origin {m}
  ,                                       !- Y Origin {m}
  ,                                       !- Z Origin {m}
  ,                                       !- Building Story Name
  {01d925ba-553c-4e47-bf3d-b2450b2e2ba0}, !- Thermal Zone Name
  ,                                       !- Part of Total Floor Area
  ,                                       !- Design Specification Outdoor Air Object Name
  {72e49ee4-2739-4a8d-a36b-ffcd5ea46894}; !- Building Unit Name

OS:Surface,
  {414a189b-e696-4edb-b444-9c5e4f20ae02}, !- Handle
  Surface 1,                              !- Name
  Floor,                                  !- Surface Type
  ,                                       !- Construction Name
  {714ae1d3-3f8b-4b11-a881-565262dfda7f}, !- Space Name
  Foundation,                             !- Outside Boundary Condition
  ,                                       !- Outside Boundary Condition Object
  NoSun,                                  !- Sun Exposure
  NoWind,                                 !- Wind Exposure
  ,                                       !- View Factor to Ground
  ,                                       !- Number of Vertices
  0, -9.144, 0,                           !- X,Y,Z Vertex 1 {m}
  0, 0, 0,                                !- X,Y,Z Vertex 2 {m}
  4.572, 0, 0,                            !- X,Y,Z Vertex 3 {m}
  4.572, -9.144, 0;                       !- X,Y,Z Vertex 4 {m}

OS:Surface,
  {a82681ef-ba4f-443b-ba61-599c4035fad2}, !- Handle
  Surface 2,                              !- Name
  Wall,                                   !- Surface Type
  ,                                       !- Construction Name
  {714ae1d3-3f8b-4b11-a881-565262dfda7f}, !- Space Name
  Outdoors,                               !- Outside Boundary Condition
  ,                                       !- Outside Boundary Condition Object
  SunExposed,                             !- Sun Exposure
  WindExposed,                            !- Wind Exposure
  ,                                       !- View Factor to Ground
  ,                                       !- Number of Vertices
  0, 0, 2.4384,                           !- X,Y,Z Vertex 1 {m}
  0, 0, 0,                                !- X,Y,Z Vertex 2 {m}
  0, -9.144, 0,                           !- X,Y,Z Vertex 3 {m}
  0, -9.144, 2.4384;                      !- X,Y,Z Vertex 4 {m}

OS:Surface,
  {983600c1-9c63-40b2-8d55-310f5809419d}, !- Handle
  Surface 3,                              !- Name
  Wall,                                   !- Surface Type
  ,                                       !- Construction Name
  {714ae1d3-3f8b-4b11-a881-565262dfda7f}, !- Space Name
  Outdoors,                               !- Outside Boundary Condition
  ,                                       !- Outside Boundary Condition Object
  SunExposed,                             !- Sun Exposure
  WindExposed,                            !- Wind Exposure
  ,                                       !- View Factor to Ground
  ,                                       !- Number of Vertices
  4.572, 0, 2.4384,                       !- X,Y,Z Vertex 1 {m}
  4.572, 0, 0,                            !- X,Y,Z Vertex 2 {m}
  0, 0, 0,                                !- X,Y,Z Vertex 3 {m}
  0, 0, 2.4384;                           !- X,Y,Z Vertex 4 {m}

OS:Surface,
  {7f1c123a-206a-4546-b8ec-604e4b453fef}, !- Handle
  Surface 4,                              !- Name
  Wall,                                   !- Surface Type
  ,                                       !- Construction Name
  {714ae1d3-3f8b-4b11-a881-565262dfda7f}, !- Space Name
  Adiabatic,                              !- Outside Boundary Condition
  ,                                       !- Outside Boundary Condition Object
  NoSun,                                  !- Sun Exposure
  NoWind,                                 !- Wind Exposure
  ,                                       !- View Factor to Ground
  ,                                       !- Number of Vertices
  4.572, -9.144, 2.4384,                  !- X,Y,Z Vertex 1 {m}
  4.572, -9.144, 0,                       !- X,Y,Z Vertex 2 {m}
  4.572, 0, 0,                            !- X,Y,Z Vertex 3 {m}
  4.572, 0, 2.4384;                       !- X,Y,Z Vertex 4 {m}

OS:Surface,
  {eea4bb07-b18e-49f8-b166-2daa7315f6fe}, !- Handle
  Surface 5,                              !- Name
  Wall,                                   !- Surface Type
  ,                                       !- Construction Name
  {714ae1d3-3f8b-4b11-a881-565262dfda7f}, !- Space Name
  Outdoors,                               !- Outside Boundary Condition
  ,                                       !- Outside Boundary Condition Object
  SunExposed,                             !- Sun Exposure
  WindExposed,                            !- Wind Exposure
  ,                                       !- View Factor to Ground
  ,                                       !- Number of Vertices
  0, -9.144, 2.4384,                      !- X,Y,Z Vertex 1 {m}
  0, -9.144, 0,                           !- X,Y,Z Vertex 2 {m}
  4.572, -9.144, 0,                       !- X,Y,Z Vertex 3 {m}
  4.572, -9.144, 2.4384;                  !- X,Y,Z Vertex 4 {m}

OS:Surface,
  {d9577c98-56dc-4a4f-a14a-305d73eb7364}, !- Handle
  Surface 6,                              !- Name
  RoofCeiling,                            !- Surface Type
  ,                                       !- Construction Name
  {714ae1d3-3f8b-4b11-a881-565262dfda7f}, !- Space Name
  Surface,                                !- Outside Boundary Condition
  {2ffa6c85-17bc-45ef-babd-9157ad1a5317}, !- Outside Boundary Condition Object
  NoSun,                                  !- Sun Exposure
  NoWind,                                 !- Wind Exposure
  ,                                       !- View Factor to Ground
  ,                                       !- Number of Vertices
  4.572, -9.144, 2.4384,                  !- X,Y,Z Vertex 1 {m}
  4.572, 0, 2.4384,                       !- X,Y,Z Vertex 2 {m}
  0, 0, 2.4384,                           !- X,Y,Z Vertex 3 {m}
  0, -9.144, 2.4384;                      !- X,Y,Z Vertex 4 {m}

OS:SpaceType,
  {09d4f916-b98e-4df9-9d42-ead18594e17f}, !- Handle
  Space Type 1,                           !- Name
  ,                                       !- Default Construction Set Name
  ,                                       !- Default Schedule Set Name
  ,                                       !- Group Rendering Name
  ,                                       !- Design Specification Outdoor Air Object Name
  ,                                       !- Standards Template
  ,                                       !- Standards Building Type
  living;                                 !- Standards Space Type

OS:Space,
  {b712eab6-0e3e-42d8-92af-27ad449ee6b5}, !- Handle
  living space|story 2,                   !- Name
  {09d4f916-b98e-4df9-9d42-ead18594e17f}, !- Space Type Name
  ,                                       !- Default Construction Set Name
  ,                                       !- Default Schedule Set Name
  -0,                                     !- Direction of Relative North {deg}
  0,                                      !- X Origin {m}
  0,                                      !- Y Origin {m}
  2.4384,                                 !- Z Origin {m}
  ,                                       !- Building Story Name
  {01d925ba-553c-4e47-bf3d-b2450b2e2ba0}, !- Thermal Zone Name
  ,                                       !- Part of Total Floor Area
  ,                                       !- Design Specification Outdoor Air Object Name
  {72e49ee4-2739-4a8d-a36b-ffcd5ea46894}; !- Building Unit Name

OS:Surface,
  {4d1d8da8-0224-48df-8d9b-9b7b6c6c5064}, !- Handle
  Surface 7,                              !- Name
  Wall,                                   !- Surface Type
  ,                                       !- Construction Name
  {b712eab6-0e3e-42d8-92af-27ad449ee6b5}, !- Space Name
  Outdoors,                               !- Outside Boundary Condition
  ,                                       !- Outside Boundary Condition Object
  SunExposed,                             !- Sun Exposure
  WindExposed,                            !- Wind Exposure
  ,                                       !- View Factor to Ground
  ,                                       !- Number of Vertices
  0, 0, 2.4384,                           !- X,Y,Z Vertex 1 {m}
  0, 0, 0,                                !- X,Y,Z Vertex 2 {m}
  0, -9.144, 0,                           !- X,Y,Z Vertex 3 {m}
  0, -9.144, 2.4384;                      !- X,Y,Z Vertex 4 {m}

OS:Surface,
  {2ffa6c85-17bc-45ef-babd-9157ad1a5317}, !- Handle
  Surface 8,                              !- Name
  Floor,                                  !- Surface Type
  ,                                       !- Construction Name
  {b712eab6-0e3e-42d8-92af-27ad449ee6b5}, !- Space Name
  Surface,                                !- Outside Boundary Condition
  {d9577c98-56dc-4a4f-a14a-305d73eb7364}, !- Outside Boundary Condition Object
  NoSun,                                  !- Sun Exposure
  NoWind,                                 !- Wind Exposure
  ,                                       !- View Factor to Ground
  ,                                       !- Number of Vertices
  0, -9.144, 0,                           !- X,Y,Z Vertex 1 {m}
  0, 0, 0,                                !- X,Y,Z Vertex 2 {m}
  4.572, 0, 0,                            !- X,Y,Z Vertex 3 {m}
  4.572, -9.144, 0;                       !- X,Y,Z Vertex 4 {m}

OS:Surface,
  {516894a6-b57d-4045-bbbd-b17883b25d6e}, !- Handle
  Surface 9,                              !- Name
  Wall,                                   !- Surface Type
  ,                                       !- Construction Name
  {b712eab6-0e3e-42d8-92af-27ad449ee6b5}, !- Space Name
  Outdoors,                               !- Outside Boundary Condition
  ,                                       !- Outside Boundary Condition Object
  SunExposed,                             !- Sun Exposure
  WindExposed,                            !- Wind Exposure
  ,                                       !- View Factor to Ground
  ,                                       !- Number of Vertices
  4.572, 0, 2.4384,                       !- X,Y,Z Vertex 1 {m}
  4.572, 0, 0,                            !- X,Y,Z Vertex 2 {m}
  0, 0, 0,                                !- X,Y,Z Vertex 3 {m}
  0, 0, 2.4384;                           !- X,Y,Z Vertex 4 {m}

OS:Surface,
  {2bdf0309-2ffc-418a-95b7-fa6ae45db13c}, !- Handle
  Surface 10,                             !- Name
  Wall,                                   !- Surface Type
  ,                                       !- Construction Name
  {b712eab6-0e3e-42d8-92af-27ad449ee6b5}, !- Space Name
  Outdoors,                               !- Outside Boundary Condition
  ,                                       !- Outside Boundary Condition Object
  SunExposed,                             !- Sun Exposure
  WindExposed,                            !- Wind Exposure
  ,                                       !- View Factor to Ground
  ,                                       !- Number of Vertices
  0, -9.144, 2.4384,                      !- X,Y,Z Vertex 1 {m}
  0, -9.144, 0,                           !- X,Y,Z Vertex 2 {m}
  4.572, -9.144, 0,                       !- X,Y,Z Vertex 3 {m}
  4.572, -9.144, 2.4384;                  !- X,Y,Z Vertex 4 {m}

OS:Surface,
  {67cf6a0d-cc3e-4a97-a3d3-fa9613c993d6}, !- Handle
  Surface 11,                             !- Name
  Wall,                                   !- Surface Type
  ,                                       !- Construction Name
  {b712eab6-0e3e-42d8-92af-27ad449ee6b5}, !- Space Name
  Adiabatic,                              !- Outside Boundary Condition
  ,                                       !- Outside Boundary Condition Object
  NoSun,                                  !- Sun Exposure
  NoWind,                                 !- Wind Exposure
  ,                                       !- View Factor to Ground
  ,                                       !- Number of Vertices
  4.572, -9.144, 2.4384,                  !- X,Y,Z Vertex 1 {m}
  4.572, -9.144, 0,                       !- X,Y,Z Vertex 2 {m}
  4.572, 0, 0,                            !- X,Y,Z Vertex 3 {m}
  4.572, 0, 2.4384;                       !- X,Y,Z Vertex 4 {m}

OS:Surface,
  {80ef699c-cbb1-4e8f-a2d0-84ddc00f74db}, !- Handle
  Surface 12,                             !- Name
  RoofCeiling,                            !- Surface Type
  ,                                       !- Construction Name
  {b712eab6-0e3e-42d8-92af-27ad449ee6b5}, !- Space Name
  Surface,                                !- Outside Boundary Condition
  {234b2315-e170-46e4-a0e0-a325f539d165}, !- Outside Boundary Condition Object
  NoSun,                                  !- Sun Exposure
  NoWind,                                 !- Wind Exposure
  ,                                       !- View Factor to Ground
  ,                                       !- Number of Vertices
  4.572, -9.144, 2.4384,                  !- X,Y,Z Vertex 1 {m}
  4.572, 0, 2.4384,                       !- X,Y,Z Vertex 2 {m}
  0, 0, 2.4384,                           !- X,Y,Z Vertex 3 {m}
  0, -9.144, 2.4384;                      !- X,Y,Z Vertex 4 {m}

OS:Surface,
  {234b2315-e170-46e4-a0e0-a325f539d165}, !- Handle
  Surface 13,                             !- Name
  Floor,                                  !- Surface Type
  ,                                       !- Construction Name
  {c7caab07-bb6b-4d66-99a7-5741fc0f4323}, !- Space Name
  Surface,                                !- Outside Boundary Condition
  {80ef699c-cbb1-4e8f-a2d0-84ddc00f74db}, !- Outside Boundary Condition Object
  NoSun,                                  !- Sun Exposure
  NoWind,                                 !- Wind Exposure
  ,                                       !- View Factor to Ground
  ,                                       !- Number of Vertices
  0, -9.144, 4.8768,                      !- X,Y,Z Vertex 1 {m}
  0, 0, 4.8768,                           !- X,Y,Z Vertex 2 {m}
  4.572, 0, 4.8768,                       !- X,Y,Z Vertex 3 {m}
  4.572, -9.144, 4.8768;                  !- X,Y,Z Vertex 4 {m}

OS:Surface,
  {c27f4955-f6a1-48dd-ac15-5a998b7ea80e}, !- Handle
  Surface 14,                             !- Name
  RoofCeiling,                            !- Surface Type
  ,                                       !- Construction Name
  {c7caab07-bb6b-4d66-99a7-5741fc0f4323}, !- Space Name
  Outdoors,                               !- Outside Boundary Condition
  ,                                       !- Outside Boundary Condition Object
  SunExposed,                             !- Sun Exposure
  WindExposed,                            !- Wind Exposure
  ,                                       !- View Factor to Ground
  ,                                       !- Number of Vertices
  0, -4.572, 7.1628,                      !- X,Y,Z Vertex 1 {m}
  4.572, -4.572, 7.1628,                  !- X,Y,Z Vertex 2 {m}
  4.572, 0, 4.8768,                       !- X,Y,Z Vertex 3 {m}
  0, 0, 4.8768;                           !- X,Y,Z Vertex 4 {m}

OS:Surface,
  {138082fb-2716-4316-aec4-661c91617764}, !- Handle
  Surface 15,                             !- Name
  RoofCeiling,                            !- Surface Type
  ,                                       !- Construction Name
  {c7caab07-bb6b-4d66-99a7-5741fc0f4323}, !- Space Name
  Outdoors,                               !- Outside Boundary Condition
  ,                                       !- Outside Boundary Condition Object
  SunExposed,                             !- Sun Exposure
  WindExposed,                            !- Wind Exposure
  ,                                       !- View Factor to Ground
  ,                                       !- Number of Vertices
  4.572, -4.572, 7.1628,                  !- X,Y,Z Vertex 1 {m}
  0, -4.572, 7.1628,                      !- X,Y,Z Vertex 2 {m}
  0, -9.144, 4.8768,                      !- X,Y,Z Vertex 3 {m}
  4.572, -9.144, 4.8768;                  !- X,Y,Z Vertex 4 {m}

OS:Surface,
  {8016af25-7dac-444b-abbc-321d1b97c876}, !- Handle
  Surface 16,                             !- Name
  Wall,                                   !- Surface Type
  ,                                       !- Construction Name
  {c7caab07-bb6b-4d66-99a7-5741fc0f4323}, !- Space Name
  Outdoors,                               !- Outside Boundary Condition
  ,                                       !- Outside Boundary Condition Object
  SunExposed,                             !- Sun Exposure
  WindExposed,                            !- Wind Exposure
  ,                                       !- View Factor to Ground
  ,                                       !- Number of Vertices
  0, -4.572, 7.1628,                      !- X,Y,Z Vertex 1 {m}
  0, 0, 4.8768,                           !- X,Y,Z Vertex 2 {m}
  0, -9.144, 4.8768;                      !- X,Y,Z Vertex 3 {m}

OS:Surface,
  {6f8f3cf7-2aa1-4637-9c1e-2e4bc7bd2aef}, !- Handle
  Surface 17,                             !- Name
  Wall,                                   !- Surface Type
  ,                                       !- Construction Name
  {c7caab07-bb6b-4d66-99a7-5741fc0f4323}, !- Space Name
  Adiabatic,                              !- Outside Boundary Condition
  ,                                       !- Outside Boundary Condition Object
  NoSun,                                  !- Sun Exposure
  NoWind,                                 !- Wind Exposure
  ,                                       !- View Factor to Ground
  ,                                       !- Number of Vertices
  4.572, -4.572, 7.1628,                  !- X,Y,Z Vertex 1 {m}
  4.572, -9.144, 4.8768,                  !- X,Y,Z Vertex 2 {m}
  4.572, 0, 4.8768;                       !- X,Y,Z Vertex 3 {m}

OS:Space,
  {c7caab07-bb6b-4d66-99a7-5741fc0f4323}, !- Handle
  unfinished attic space,                 !- Name
  {c3475786-82db-4c62-98c6-d57cb2f8c18e}, !- Space Type Name
  ,                                       !- Default Construction Set Name
  ,                                       !- Default Schedule Set Name
  ,                                       !- Direction of Relative North {deg}
  ,                                       !- X Origin {m}
  ,                                       !- Y Origin {m}
  ,                                       !- Z Origin {m}
  ,                                       !- Building Story Name
  {25a1c9a3-8b98-427a-b02f-7ff78d7041ea}; !- Thermal Zone Name

OS:ThermalZone,
  {25a1c9a3-8b98-427a-b02f-7ff78d7041ea}, !- Handle
  unfinished attic zone,                  !- Name
  ,                                       !- Multiplier
  ,                                       !- Ceiling Height {m}
  ,                                       !- Volume {m3}
  ,                                       !- Floor Area {m2}
  ,                                       !- Zone Inside Convection Algorithm
  ,                                       !- Zone Outside Convection Algorithm
  ,                                       !- Zone Conditioning Equipment List Name
  {cd4fd37f-f70a-484a-a030-9fc9c6d531f5}, !- Zone Air Inlet Port List
  {ec4008f8-622c-42bc-af68-34ea0031ec92}, !- Zone Air Exhaust Port List
  {726e707f-88d8-4af1-bffa-daa1b6531e52}, !- Zone Air Node Name
  {be03d824-3deb-4287-bca5-14553f95ce18}, !- Zone Return Air Port List
  ,                                       !- Primary Daylighting Control Name
  ,                                       !- Fraction of Zone Controlled by Primary Daylighting Control