!- NOTE: Auto-generated from /test/osw_files/SFA_4units_1story_SL_UA_3Beds_2Baths_Denver.osw

OS:Version,
  {54f5b9b9-64e7-415e-ac89-f4076659b027}, !- Handle
  2.9.1;                                  !- Version Identifier

OS:SimulationControl,
  {68fd98c9-7e09-46a3-af2f-fd6f0052b7fd}, !- Handle
  ,                                       !- Do Zone Sizing Calculation
  ,                                       !- Do System Sizing Calculation
  ,                                       !- Do Plant Sizing Calculation
  No;                                     !- Run Simulation for Sizing Periods

OS:Timestep,
  {ed4dccf9-e801-45fa-a7a8-ea246ba0897d}, !- Handle
  6;                                      !- Number of Timesteps per Hour

OS:ShadowCalculation,
  {27fe942c-9ce9-4dda-9c04-3d62277704d7}, !- Handle
  20,                                     !- Calculation Frequency
  200;                                    !- Maximum Figures in Shadow Overlap Calculations

OS:SurfaceConvectionAlgorithm:Outside,
  {790fd586-7733-47b1-abd0-64d6fab0766d}, !- Handle
  DOE-2;                                  !- Algorithm

OS:SurfaceConvectionAlgorithm:Inside,
  {cd70fd66-75cf-4154-bebd-b80f031420a0}, !- Handle
  TARP;                                   !- Algorithm

OS:ZoneCapacitanceMultiplier:ResearchSpecial,
  {af7cf250-08d8-43f9-bb93-8f5f6789d1ac}, !- Handle
  ,                                       !- Temperature Capacity Multiplier
  15,                                     !- Humidity Capacity Multiplier
  ;                                       !- Carbon Dioxide Capacity Multiplier

OS:RunPeriod,
  {ff5e40c1-f8f5-44e2-a6c7-8d1e71bf838e}, !- Handle
  Run Period 1,                           !- Name
  1,                                      !- Begin Month
  1,                                      !- Begin Day of Month
  12,                                     !- End Month
  31,                                     !- End Day of Month
  ,                                       !- Use Weather File Holidays and Special Days
  ,                                       !- Use Weather File Daylight Saving Period
  ,                                       !- Apply Weekend Holiday Rule
  ,                                       !- Use Weather File Rain Indicators
  ,                                       !- Use Weather File Snow Indicators
  ;                                       !- Number of Times Runperiod to be Repeated

OS:YearDescription,
  {5e8c43ce-844b-4da3-b7dd-08eff4db2ebd}, !- Handle
  2007,                                   !- Calendar Year
  ,                                       !- Day of Week for Start Day
  ;                                       !- Is Leap Year

OS:ThermalZone,
  {e6c2f5af-cffd-4726-bbf4-e40c66344971}, !- Handle
  living zone,                            !- Name
  ,                                       !- Multiplier
  ,                                       !- Ceiling Height {m}
  ,                                       !- Volume {m3}
  ,                                       !- Floor Area {m2}
  ,                                       !- Zone Inside Convection Algorithm
  ,                                       !- Zone Outside Convection Algorithm
  ,                                       !- Zone Conditioning Equipment List Name
  {d6f39f82-201b-4d50-881b-71c5eab1d3f4}, !- Zone Air Inlet Port List
  {92175978-bdbe-482f-b487-7b83184c223e}, !- Zone Air Exhaust Port List
  {edf3cdf5-9dea-48d9-bbd1-c805636d9ab1}, !- Zone Air Node Name
  {8d380565-a387-437e-bb99-2ff8f5ba3803}, !- Zone Return Air Port List
  ,                                       !- Primary Daylighting Control Name
  ,                                       !- Fraction of Zone Controlled by Primary Daylighting Control
  ,                                       !- Secondary Daylighting Control Name
  ,                                       !- Fraction of Zone Controlled by Secondary Daylighting Control
  ,                                       !- Illuminance Map Name
  ,                                       !- Group Rendering Name
  ,                                       !- Thermostat Name
  No;                                     !- Use Ideal Air Loads

OS:Node,
  {bf8b8346-3087-402e-a3e6-66c51fd3c824}, !- Handle
  Node 1,                                 !- Name
  {edf3cdf5-9dea-48d9-bbd1-c805636d9ab1}, !- Inlet Port
  ;                                       !- Outlet Port

OS:Connection,
  {edf3cdf5-9dea-48d9-bbd1-c805636d9ab1}, !- Handle
  {3090fdac-7a93-4f3a-81dd-97cf6f40b480}, !- Name
  {e6c2f5af-cffd-4726-bbf4-e40c66344971}, !- Source Object
  11,                                     !- Outlet Port
  {bf8b8346-3087-402e-a3e6-66c51fd3c824}, !- Target Object
  2;                                      !- Inlet Port

OS:PortList,
  {d6f39f82-201b-4d50-881b-71c5eab1d3f4}, !- Handle
  {8e3447c2-d327-4a4a-9cbb-f5f8a4081465}, !- Name
  {e6c2f5af-cffd-4726-bbf4-e40c66344971}; !- HVAC Component

OS:PortList,
  {92175978-bdbe-482f-b487-7b83184c223e}, !- Handle
  {e7b22f9a-5c28-4e54-8bb4-e1537588e688}, !- Name
  {e6c2f5af-cffd-4726-bbf4-e40c66344971}; !- HVAC Component

OS:PortList,
  {8d380565-a387-437e-bb99-2ff8f5ba3803}, !- Handle
  {40679d6d-ed0e-47e9-bf34-b88011b5d477}, !- Name
  {e6c2f5af-cffd-4726-bbf4-e40c66344971}; !- HVAC Component

OS:Sizing:Zone,
  {568014c2-ae32-4ab9-a637-5dfe64e2d6eb}, !- Handle
  {e6c2f5af-cffd-4726-bbf4-e40c66344971}, !- Zone or ZoneList Name
  SupplyAirTemperature,                   !- Zone Cooling Design Supply Air Temperature Input Method
  14,                                     !- Zone Cooling Design Supply Air Temperature {C}
  11.11,                                  !- Zone Cooling Design Supply Air Temperature Difference {deltaC}
  SupplyAirTemperature,                   !- Zone Heating Design Supply Air Temperature Input Method
  40,                                     !- Zone Heating Design Supply Air Temperature {C}
  11.11,                                  !- Zone Heating Design Supply Air Temperature Difference {deltaC}
  0.0085,                                 !- Zone Cooling Design Supply Air Humidity Ratio {kg-H2O/kg-air}
  0.008,                                  !- Zone Heating Design Supply Air Humidity Ratio {kg-H2O/kg-air}
  ,                                       !- Zone Heating Sizing Factor
  ,                                       !- Zone Cooling Sizing Factor
  DesignDay,                              !- Cooling Design Air Flow Method
  ,                                       !- Cooling Design Air Flow Rate {m3/s}
  ,                                       !- Cooling Minimum Air Flow per Zone Floor Area {m3/s-m2}
  ,                                       !- Cooling Minimum Air Flow {m3/s}
  ,                                       !- Cooling Minimum Air Flow Fraction
  DesignDay,                              !- Heating Design Air Flow Method
  ,                                       !- Heating Design Air Flow Rate {m3/s}
  ,                                       !- Heating Maximum Air Flow per Zone Floor Area {m3/s-m2}
  ,                                       !- Heating Maximum Air Flow {m3/s}
  ,                                       !- Heating Maximum Air Flow Fraction
  ,                                       !- Design Zone Air Distribution Effectiveness in Cooling Mode
  ,                                       !- Design Zone Air Distribution Effectiveness in Heating Mode
  No,                                     !- Account for Dedicated Outdoor Air System
  NeutralSupplyAir,                       !- Dedicated Outdoor Air System Control Strategy
  autosize,                               !- Dedicated Outdoor Air Low Setpoint Temperature for Design {C}
  autosize;                               !- Dedicated Outdoor Air High Setpoint Temperature for Design {C}

OS:ZoneHVAC:EquipmentList,
  {05a1189a-b178-4165-87c4-942c1b655a1b}, !- Handle
  Zone HVAC Equipment List 1,             !- Name
  {e6c2f5af-cffd-4726-bbf4-e40c66344971}; !- Thermal Zone

OS:Space,
  {b7b430fd-4fb9-4e87-9c8b-61abd0edf88c}, !- Handle
  living space,                           !- Name
  {3202a6e5-00ff-46f3-948f-d3d8a134845b}, !- Space Type Name
  ,                                       !- Default Construction Set Name
  ,                                       !- Default Schedule Set Name
  ,                                       !- Direction of Relative North {deg}
  ,                                       !- X Origin {m}
  ,                                       !- Y Origin {m}
  ,                                       !- Z Origin {m}
  ,                                       !- Building Story Name
  {e6c2f5af-cffd-4726-bbf4-e40c66344971}, !- Thermal Zone Name
  ,                                       !- Part of Total Floor Area
  ,                                       !- Design Specification Outdoor Air Object Name
  {c440ea52-e18d-472a-8b4d-e6fb2501dc08}; !- Building Unit Name

OS:Surface,
  {51f9d238-df28-4ec8-a8ea-abcb18865082}, !- Handle
  Surface 1,                              !- Name
  Floor,                                  !- Surface Type
  ,                                       !- Construction Name
  {b7b430fd-4fb9-4e87-9c8b-61abd0edf88c}, !- Space Name
  Foundation,                             !- Outside Boundary Condition
  ,                                       !- Outside Boundary Condition Object
  NoSun,                                  !- Sun Exposure
  NoWind,                                 !- Wind Exposure
  ,                                       !- View Factor to Ground
  ,                                       !- Number of Vertices
  0, -12.9315688143396, 0,                !- X,Y,Z Vertex 1 {m}
  0, 0, 0,                                !- X,Y,Z Vertex 2 {m}
  6.46578440716979, 0, 0,                 !- X,Y,Z Vertex 3 {m}
  6.46578440716979, -12.9315688143396, 0; !- X,Y,Z Vertex 4 {m}

OS:Surface,
  {00d1c349-0f98-42bc-b64c-19aa8f101af2}, !- Handle
  Surface 2,                              !- Name
  Wall,                                   !- Surface Type
  ,                                       !- Construction Name
  {b7b430fd-4fb9-4e87-9c8b-61abd0edf88c}, !- Space Name
  Outdoors,                               !- Outside Boundary Condition
  ,                                       !- Outside Boundary Condition Object
  SunExposed,                             !- Sun Exposure
  WindExposed,                            !- Wind Exposure
  ,                                       !- View Factor to Ground
  ,                                       !- Number of Vertices
  0, 0, 2.4384,                           !- X,Y,Z Vertex 1 {m}
  0, 0, 0,                                !- X,Y,Z Vertex 2 {m}
  0, -12.9315688143396, 0,                !- X,Y,Z Vertex 3 {m}
  0, -12.9315688143396, 2.4384;           !- X,Y,Z Vertex 4 {m}

OS:Surface,
  {3d810f98-dde4-4a73-b962-a434d2c3fb9c}, !- Handle
  Surface 3,                              !- Name
  Wall,                                   !- Surface Type
  ,                                       !- Construction Name
  {b7b430fd-4fb9-4e87-9c8b-61abd0edf88c}, !- Space Name
  Outdoors,                               !- Outside Boundary Condition
  ,                                       !- Outside Boundary Condition Object
  SunExposed,                             !- Sun Exposure
  WindExposed,                            !- Wind Exposure
  ,                                       !- View Factor to Ground
  ,                                       !- Number of Vertices
  6.46578440716979, 0, 2.4384,            !- X,Y,Z Vertex 1 {m}
  6.46578440716979, 0, 0,                 !- X,Y,Z Vertex 2 {m}
  0, 0, 0,                                !- X,Y,Z Vertex 3 {m}
  0, 0, 2.4384;                           !- X,Y,Z Vertex 4 {m}

OS:Surface,
  {22bb6005-4ab8-41d4-975f-0bd915ddaed9}, !- Handle
  Surface 4,                              !- Name
  Wall,                                   !- Surface Type
  ,                                       !- Construction Name
  {b7b430fd-4fb9-4e87-9c8b-61abd0edf88c}, !- Space Name
  Surface,                                !- Outside Boundary Condition
  {ce8086fc-acc8-4c0b-ab11-c53d78e214bd}, !- Outside Boundary Condition Object
  NoSun,                                  !- Sun Exposure
  NoWind,                                 !- Wind Exposure
  ,                                       !- View Factor to Ground
  ,                                       !- Number of Vertices
  6.46578440716979, -12.9315688143396, 2.4384, !- X,Y,Z Vertex 1 {m}
  6.46578440716979, -12.9315688143396, 0, !- X,Y,Z Vertex 2 {m}
  6.46578440716979, 0, 0,                 !- X,Y,Z Vertex 3 {m}
  6.46578440716979, 0, 2.4384;            !- X,Y,Z Vertex 4 {m}

OS:Surface,
  {4813feae-a0d4-4def-bae0-b89fec9397fd}, !- Handle
  Surface 5,                              !- Name
  Wall,                                   !- Surface Type
  ,                                       !- Construction Name
  {b7b430fd-4fb9-4e87-9c8b-61abd0edf88c}, !- Space Name
  Outdoors,                               !- Outside Boundary Condition
  ,                                       !- Outside Boundary Condition Object
  SunExposed,                             !- Sun Exposure
  WindExposed,                            !- Wind Exposure
  ,                                       !- View Factor to Ground
  ,                                       !- Number of Vertices
  0, -12.9315688143396, 2.4384,           !- X,Y,Z Vertex 1 {m}
  0, -12.9315688143396, 0,                !- X,Y,Z Vertex 2 {m}
  6.46578440716979, -12.9315688143396, 0, !- X,Y,Z Vertex 3 {m}
  6.46578440716979, -12.9315688143396, 2.4384; !- X,Y,Z Vertex 4 {m}

OS:Surface,
  {1774dd90-7600-4133-b84c-af7a7d5ce922}, !- Handle
  Surface 6,                              !- Name
  RoofCeiling,                            !- Surface Type
  ,                                       !- Construction Name
  {b7b430fd-4fb9-4e87-9c8b-61abd0edf88c}, !- Space Name
  Surface,                                !- Outside Boundary Condition
  {fdc6bfc2-a262-477f-9171-657aa7b78646}, !- Outside Boundary Condition Object
  NoSun,                                  !- Sun Exposure
  NoWind,                                 !- Wind Exposure
  ,                                       !- View Factor to Ground
  ,                                       !- Number of Vertices
  6.46578440716979, -12.9315688143396, 2.4384, !- X,Y,Z Vertex 1 {m}
  6.46578440716979, 0, 2.4384,            !- X,Y,Z Vertex 2 {m}
  0, 0, 2.4384,                           !- X,Y,Z Vertex 3 {m}
  0, -12.9315688143396, 2.4384;           !- X,Y,Z Vertex 4 {m}

OS:SpaceType,
  {3202a6e5-00ff-46f3-948f-d3d8a134845b}, !- Handle
  Space Type 1,                           !- Name
  ,                                       !- Default Construction Set Name
  ,                                       !- Default Schedule Set Name
  ,                                       !- Group Rendering Name
  ,                                       !- Design Specification Outdoor Air Object Name
  ,                                       !- Standards Template
  ,                                       !- Standards Building Type
  living;                                 !- Standards Space Type

OS:ThermalZone,
  {57211971-1811-4764-9f9c-27e35c6ec295}, !- Handle
  living zone|unit 2,                     !- Name
  ,                                       !- Multiplier
  ,                                       !- Ceiling Height {m}
  ,                                       !- Volume {m3}
  ,                                       !- Floor Area {m2}
  ,                                       !- Zone Inside Convection Algorithm
  ,                                       !- Zone Outside Convection Algorithm
  ,                                       !- Zone Conditioning Equipment List Name
  {2ec7dd7b-a237-4fef-86fe-34f494b7477e}, !- Zone Air Inlet Port List
  {afee52d4-9cdf-4cc2-9079-107747adf068}, !- Zone Air Exhaust Port List
  {8f8ed95f-b92d-43d2-afdb-963f01b4fd40}, !- Zone Air Node Name
  {1f9c2527-1c81-470f-a1c6-4a01405a2335}, !- Zone Return Air Port List
  ,                                       !- Primary Daylighting Control Name
  ,                                       !- Fraction of Zone Controlled by Primary Daylighting Control
  ,                                       !- Secondary Daylighting Control Name
  ,                                       !- Fraction of Zone Controlled by Secondary Daylighting Control
  ,                                       !- Illuminance Map Name
  ,                                       !- Group Rendering Name
  ,                                       !- Thermostat Name
  No;                                     !- Use Ideal Air Loads

OS:Node,
  {84ac0005-85f2-4c2a-8110-6a2fc6fae1ca}, !- Handle
  Node 2,                                 !- Name
  {8f8ed95f-b92d-43d2-afdb-963f01b4fd40}, !- Inlet Port
  ;                                       !- Outlet Port

OS:Connection,
  {8f8ed95f-b92d-43d2-afdb-963f01b4fd40}, !- Handle
  {931b79b0-7593-430d-b897-c01b037853f0}, !- Name
  {57211971-1811-4764-9f9c-27e35c6ec295}, !- Source Object
  11,                                     !- Outlet Port
  {84ac0005-85f2-4c2a-8110-6a2fc6fae1ca}, !- Target Object
  2;                                      !- Inlet Port

OS:PortList,
  {2ec7dd7b-a237-4fef-86fe-34f494b7477e}, !- Handle
  {30b99bb1-39ce-42a6-ada5-7a5048146aed}, !- Name
  {57211971-1811-4764-9f9c-27e35c6ec295}; !- HVAC Component

OS:PortList,
  {afee52d4-9cdf-4cc2-9079-107747adf068}, !- Handle
  {15bc4d29-8a21-45a6-a0a8-9cf492d7be5a}, !- Name
  {57211971-1811-4764-9f9c-27e35c6ec295}; !- HVAC Component

OS:PortList,
  {1f9c2527-1c81-470f-a1c6-4a01405a2335}, !- Handle
  {98f25adf-2560-4a7c-a805-7b5e9a4a446b}, !- Name
  {57211971-1811-4764-9f9c-27e35c6ec295}; !- HVAC Component

OS:Sizing:Zone,
  {9df57107-ff19-491c-b615-1fbf08088242}, !- Handle
  {57211971-1811-4764-9f9c-27e35c6ec295}, !- Zone or ZoneList Name
  SupplyAirTemperature,                   !- Zone Cooling Design Supply Air Temperature Input Method
  14,                                     !- Zone Cooling Design Supply Air Temperature {C}
  11.11,                                  !- Zone Cooling Design Supply Air Temperature Difference {deltaC}
  SupplyAirTemperature,                   !- Zone Heating Design Supply Air Temperature Input Method
  40,                                     !- Zone Heating Design Supply Air Temperature {C}
  11.11,                                  !- Zone Heating Design Supply Air Temperature Difference {deltaC}
  0.0085,                                 !- Zone Cooling Design Supply Air Humidity Ratio {kg-H2O/kg-air}
  0.008,                                  !- Zone Heating Design Supply Air Humidity Ratio {kg-H2O/kg-air}
  ,                                       !- Zone Heating Sizing Factor
  ,                                       !- Zone Cooling Sizing Factor
  DesignDay,                              !- Cooling Design Air Flow Method
  ,                                       !- Cooling Design Air Flow Rate {m3/s}
  ,                                       !- Cooling Minimum Air Flow per Zone Floor Area {m3/s-m2}
  ,                                       !- Cooling Minimum Air Flow {m3/s}
  ,                                       !- Cooling Minimum Air Flow Fraction
  DesignDay,                              !- Heating Design Air Flow Method
  ,                                       !- Heating Design Air Flow Rate {m3/s}
  ,                                       !- Heating Maximum Air Flow per Zone Floor Area {m3/s-m2}
  ,                                       !- Heating Maximum Air Flow {m3/s}
  ,                                       !- Heating Maximum Air Flow Fraction
  ,                                       !- Design Zone Air Distribution Effectiveness in Cooling Mode
  ,                                       !- Design Zone Air Distribution Effectiveness in Heating Mode
  No,                                     !- Account for Dedicated Outdoor Air System
  NeutralSupplyAir,                       !- Dedicated Outdoor Air System Control Strategy
  autosize,                               !- Dedicated Outdoor Air Low Setpoint Temperature for Design {C}
  autosize;                               !- Dedicated Outdoor Air High Setpoint Temperature for Design {C}

OS:ZoneHVAC:EquipmentList,
  {d18e8981-8851-4d9b-ad2b-e3558feca9b0}, !- Handle
  Zone HVAC Equipment List 2,             !- Name
  {57211971-1811-4764-9f9c-27e35c6ec295}; !- Thermal Zone

OS:Space,
  {19b9d0c3-4ca0-4ec9-a698-ca6601246d5d}, !- Handle
  living space|unit 2|story 1,            !- Name
  {3202a6e5-00ff-46f3-948f-d3d8a134845b}, !- Space Type Name
  ,                                       !- Default Construction Set Name
  ,                                       !- Default Schedule Set Name
  -0,                                     !- Direction of Relative North {deg}
  0,                                      !- X Origin {m}
  0,                                      !- Y Origin {m}
  0,                                      !- Z Origin {m}
  ,                                       !- Building Story Name
  {57211971-1811-4764-9f9c-27e35c6ec295}, !- Thermal Zone Name
  ,                                       !- Part of Total Floor Area
  ,                                       !- Design Specification Outdoor Air Object Name
  {009116a2-f3d8-4485-a4ae-3c66711af0b2}; !- Building Unit Name

OS:Surface,
  {64d8269f-fc9a-4782-b31c-1e199d729cc3}, !- Handle
  Surface 12,                             !- Name
  Wall,                                   !- Surface Type
  ,                                       !- Construction Name
  {19b9d0c3-4ca0-4ec9-a698-ca6601246d5d}, !- Space Name
  Surface,                                !- Outside Boundary Condition
  {81b633b5-0164-4548-8df4-c5b9d7dec274}, !- Outside Boundary Condition Object
  NoSun,                                  !- Sun Exposure
  NoWind,                                 !- Wind Exposure
  ,                                       !- View Factor to Ground
  ,                                       !- Number of Vertices
  12.9315688143396, -12.9315688143396, 2.4384, !- X,Y,Z Vertex 1 {m}
  12.9315688143396, -12.9315688143396, 0, !- X,Y,Z Vertex 2 {m}
  12.9315688143396, 0, 0,                 !- X,Y,Z Vertex 3 {m}
  12.9315688143396, 0, 2.4384;            !- X,Y,Z Vertex 4 {m}

OS:Surface,
  {ce8086fc-acc8-4c0b-ab11-c53d78e214bd}, !- Handle
  Surface 13,                             !- Name
  Wall,                                   !- Surface Type
  ,                                       !- Construction Name
  {19b9d0c3-4ca0-4ec9-a698-ca6601246d5d}, !- Space Name
  Surface,                                !- Outside Boundary Condition
  {22bb6005-4ab8-41d4-975f-0bd915ddaed9}, !- Outside Boundary Condition Object
  NoSun,                                  !- Sun Exposure
  NoWind,                                 !- Wind Exposure
  ,                                       !- View Factor to Ground
  ,                                       !- Number of Vertices
  6.46578440716979, 0, 2.4384,            !- X,Y,Z Vertex 1 {m}
  6.46578440716979, 0, 0,                 !- X,Y,Z Vertex 2 {m}
  6.46578440716979, -12.9315688143396, 0, !- X,Y,Z Vertex 3 {m}
  6.46578440716979, -12.9315688143396, 2.4384; !- X,Y,Z Vertex 4 {m}

OS:Surface,
  {76003e89-9deb-41ab-9808-705973a2a9ad}, !- Handle
  Surface 14,                             !- Name
  Wall,                                   !- Surface Type
  ,                                       !- Construction Name
  {19b9d0c3-4ca0-4ec9-a698-ca6601246d5d}, !- Space Name
  Outdoors,                               !- Outside Boundary Condition
  ,                                       !- Outside Boundary Condition Object
  SunExposed,                             !- Sun Exposure
  WindExposed,                            !- Wind Exposure
  ,                                       !- View Factor to Ground
  ,                                       !- Number of Vertices
  12.9315688143396, 0, 2.4384,            !- X,Y,Z Vertex 1 {m}
  12.9315688143396, 0, 0,                 !- X,Y,Z Vertex 2 {m}
  6.46578440716979, 0, 0,                 !- X,Y,Z Vertex 3 {m}
  6.46578440716979, 0, 2.4384;            !- X,Y,Z Vertex 4 {m}

OS:Surface,
  {32f675bc-f022-4287-8a2d-004b466af661}, !- Handle
  Surface 15,                             !- Name
  RoofCeiling,                            !- Surface Type
  ,                                       !- Construction Name
  {19b9d0c3-4ca0-4ec9-a698-ca6601246d5d}, !- Space Name
  Surface,                                !- Outside Boundary Condition
  {50f6fcdc-d71b-4755-866f-2097ed11fa17}, !- Outside Boundary Condition Object
  NoSun,                                  !- Sun Exposure
  NoWind,                                 !- Wind Exposure
  ,                                       !- View Factor to Ground
  ,                                       !- Number of Vertices
  12.9315688143396, -12.9315688143396, 2.4384, !- X,Y,Z Vertex 1 {m}
  12.9315688143396, 0, 2.4384,            !- X,Y,Z Vertex 2 {m}
  6.46578440716979, 0, 2.4384,            !- X,Y,Z Vertex 3 {m}
  6.46578440716979, -12.9315688143396, 2.4384; !- X,Y,Z Vertex 4 {m}

OS:Surface,
  {726479c6-662d-4d84-93cd-f14c37688d82}, !- Handle
  Surface 16,                             !- Name
  Wall,                                   !- Surface Type
  ,                                       !- Construction Name
  {19b9d0c3-4ca0-4ec9-a698-ca6601246d5d}, !- Space Name
  Outdoors,                               !- Outside Boundary Condition
  ,                                       !- Outside Boundary Condition Object
  SunExposed,                             !- Sun Exposure
  WindExposed,                            !- Wind Exposure
  ,                                       !- View Factor to Ground
  ,                                       !- Number of Vertices
  6.46578440716979, -12.9315688143396, 2.4384, !- X,Y,Z Vertex 1 {m}
  6.46578440716979, -12.9315688143396, 0, !- X,Y,Z Vertex 2 {m}
  12.9315688143396, -12.9315688143396, 0, !- X,Y,Z Vertex 3 {m}
  12.9315688143396, -12.9315688143396, 2.4384; !- X,Y,Z Vertex 4 {m}

OS:Surface,
  {18d720da-dfe6-4e0c-aeac-fda2a8872292}, !- Handle
  Surface 17,                             !- Name
  Floor,                                  !- Surface Type
  ,                                       !- Construction Name
  {19b9d0c3-4ca0-4ec9-a698-ca6601246d5d}, !- Space Name
  Foundation,                             !- Outside Boundary Condition
  ,                                       !- Outside Boundary Condition Object
  NoSun,                                  !- Sun Exposure
  NoWind,                                 !- Wind Exposure
  ,                                       !- View Factor to Ground
  ,                                       !- Number of Vertices
  6.46578440716979, -12.9315688143396, 0, !- X,Y,Z Vertex 1 {m}
  6.46578440716979, 0, 0,                 !- X,Y,Z Vertex 2 {m}
  12.9315688143396, 0, 0,                 !- X,Y,Z Vertex 3 {m}
  12.9315688143396, -12.9315688143396, 0; !- X,Y,Z Vertex 4 {m}

OS:ThermalZone,
  {b09744cf-05cd-4b2f-83f4-21713c2fb180}, !- Handle
  living zone|unit 3,                     !- Name
  ,                                       !- Multiplier
  ,                                       !- Ceiling Height {m}
  ,                                       !- Volume {m3}
  ,                                       !- Floor Area {m2}
  ,                                       !- Zone Inside Convection Algorithm
  ,                                       !- Zone Outside Convection Algorithm
  ,                                       !- Zone Conditioning Equipment List Name
  {16919f5b-1255-476c-9072-d77c8f88bd4c}, !- Zone Air Inlet Port List
  {a0faf846-6348-44e5-ba78-1af0b70235ec}, !- Zone Air Exhaust Port List
  {571c4a60-445b-458c-889a-e87aa2dc0f41}, !- Zone Air Node Name
  {c9f14f41-dd31-46fd-bca1-5fec340a1a05}, !- Zone Return Air Port List
  ,                                       !- Primary Daylighting Control Name
  ,                                       !- Fraction of Zone Controlled by Primary Daylighting Control
  ,                                       !- Secondary Daylighting Control Name
  ,                                       !- Fraction of Zone Controlled by Secondary Daylighting Control
  ,                                       !- Illuminance Map Name
  ,                                       !- Group Rendering Name
  ,                                       !- Thermostat Name
  No;                                     !- Use Ideal Air Loads

OS:Node,
  {9895f317-7955-47a6-9099-25c0d360ebb8}, !- Handle
  Node 3,                                 !- Name
  {571c4a60-445b-458c-889a-e87aa2dc0f41}, !- Inlet Port
  ;                                       !- Outlet Port

OS:Connection,
  {571c4a60-445b-458c-889a-e87aa2dc0f41}, !- Handle
  {92b19050-02a8-457a-bfa6-05ed19ed9999}, !- Name
  {b09744cf-05cd-4b2f-83f4-21713c2fb180}, !- Source Object
  11,                                     !- Outlet Port
  {9895f317-7955-47a6-9099-25c0d360ebb8}, !- Target Object
  2;                                      !- Inlet Port

OS:PortList,
  {16919f5b-1255-476c-9072-d77c8f88bd4c}, !- Handle
  {c3dd53a4-89bf-4575-ac33-b9a158141c03}, !- Name
  {b09744cf-05cd-4b2f-83f4-21713c2fb180}; !- HVAC Component

OS:PortList,
  {a0faf846-6348-44e5-ba78-1af0b70235ec}, !- Handle
  {06df00a7-c71d-46c9-b2ff-b72bea40e005}, !- Name
  {b09744cf-05cd-4b2f-83f4-21713c2fb180}; !- HVAC Component

OS:PortList,
  {c9f14f41-dd31-46fd-bca1-5fec340a1a05}, !- Handle
  {bc89f13a-2885-49a0-b9cd-3597eb02d19f}, !- Name
  {b09744cf-05cd-4b2f-83f4-21713c2fb180}; !- HVAC Component

OS:Sizing:Zone,
  {e6d8fd65-5fe4-4acd-935d-ecfd0b017bb8}, !- Handle
  {b09744cf-05cd-4b2f-83f4-21713c2fb180}, !- Zone or ZoneList Name