!- NOTE: Auto-generated from /test/osw_files/SFA_4units_1story_SL_FA.osw

OS:Version,
  {08ce0111-bb98-43e3-9371-805b4705ebb9}, !- Handle
  2.8.0;                                  !- Version Identifier

OS:SimulationControl,
  {6935d4bb-879d-4543-be4b-c801f3246bcf}, !- Handle
  ,                                       !- Do Zone Sizing Calculation
  ,                                       !- Do System Sizing Calculation
  ,                                       !- Do Plant Sizing Calculation
  No;                                     !- Run Simulation for Sizing Periods

OS:Timestep,
  {85f163ec-7e5a-4400-a81c-f3d1fa2b9541}, !- Handle
  6;                                      !- Number of Timesteps per Hour

OS:ShadowCalculation,
  {6bf32583-3ba3-43d6-9150-8c9da916f3ba}, !- Handle
  20,                                     !- Calculation Frequency
  200;                                    !- Maximum Figures in Shadow Overlap Calculations

OS:SurfaceConvectionAlgorithm:Outside,
  {174b4730-cac3-4f79-9402-587d9fc04553}, !- Handle
  DOE-2;                                  !- Algorithm

OS:SurfaceConvectionAlgorithm:Inside,
  {1e95233f-720c-4fcc-aacc-f4fe9bda78d8}, !- Handle
  TARP;                                   !- Algorithm

OS:ZoneCapacitanceMultiplier:ResearchSpecial,
  {42d80a36-c510-483b-a6c6-a7dc33e95b42}, !- Handle
  ,                                       !- Temperature Capacity Multiplier
  15,                                     !- Humidity Capacity Multiplier
  ;                                       !- Carbon Dioxide Capacity Multiplier

OS:RunPeriod,
  {d51c4239-2dd7-476f-aebe-83a25bbe0150}, !- Handle
  Run Period 1,                           !- Name
  1,                                      !- Begin Month
  1,                                      !- Begin Day of Month
  12,                                     !- End Month
  31,                                     !- End Day of Month
  ,                                       !- Use Weather File Holidays and Special Days
  ,                                       !- Use Weather File Daylight Saving Period
  ,                                       !- Apply Weekend Holiday Rule
  ,                                       !- Use Weather File Rain Indicators
  ,                                       !- Use Weather File Snow Indicators
  ;                                       !- Number of Times Runperiod to be Repeated

OS:ThermalZone,
  {1b64f07d-d3c1-40b8-825d-2413a407c03f}, !- Handle
  living zone,                            !- Name
  ,                                       !- Multiplier
  ,                                       !- Ceiling Height {m}
  ,                                       !- Volume {m3}
  ,                                       !- Floor Area {m2}
  ,                                       !- Zone Inside Convection Algorithm
  ,                                       !- Zone Outside Convection Algorithm
  ,                                       !- Zone Conditioning Equipment List Name
  {e988d006-3b53-4535-95fe-a0a7e93fc27d}, !- Zone Air Inlet Port List
  {b708858a-dd54-4d47-a9f5-1b19a752196a}, !- Zone Air Exhaust Port List
  {1f52f2a7-ab4e-4fb1-a349-15a159cdc228}, !- Zone Air Node Name
  {ba023737-34c7-4349-8b0c-3d59644c1f82}, !- Zone Return Air Port List
  ,                                       !- Primary Daylighting Control Name
  ,                                       !- Fraction of Zone Controlled by Primary Daylighting Control
  ,                                       !- Secondary Daylighting Control Name
  ,                                       !- Fraction of Zone Controlled by Secondary Daylighting Control
  ,                                       !- Illuminance Map Name
  ,                                       !- Group Rendering Name
  ,                                       !- Thermostat Name
  No;                                     !- Use Ideal Air Loads

OS:Node,
  {8a1364cb-9c78-4adb-9a7a-4deb6613de29}, !- Handle
  Node 1,                                 !- Name
  {1f52f2a7-ab4e-4fb1-a349-15a159cdc228}, !- Inlet Port
  ;                                       !- Outlet Port

OS:Connection,
  {1f52f2a7-ab4e-4fb1-a349-15a159cdc228}, !- Handle
  {8866a5dd-ee11-400a-8c3a-9be3f1f69d71}, !- Name
  {1b64f07d-d3c1-40b8-825d-2413a407c03f}, !- Source Object
  11,                                     !- Outlet Port
  {8a1364cb-9c78-4adb-9a7a-4deb6613de29}, !- Target Object
  2;                                      !- Inlet Port

OS:PortList,
  {e988d006-3b53-4535-95fe-a0a7e93fc27d}, !- Handle
  {60063397-18c9-45fa-ac53-7649007edad2}, !- Name
  {1b64f07d-d3c1-40b8-825d-2413a407c03f}; !- HVAC Component

OS:PortList,
  {b708858a-dd54-4d47-a9f5-1b19a752196a}, !- Handle
  {6ffd9823-9df2-4c9a-9d2b-512838d31489}, !- Name
  {1b64f07d-d3c1-40b8-825d-2413a407c03f}; !- HVAC Component

OS:PortList,
  {ba023737-34c7-4349-8b0c-3d59644c1f82}, !- Handle
  {c95a6191-2039-457d-9172-f2a4457bf680}, !- Name
  {1b64f07d-d3c1-40b8-825d-2413a407c03f}; !- HVAC Component

OS:Sizing:Zone,
  {e47bdc81-feda-4de7-96f9-509710a8fb6a}, !- Handle
  {1b64f07d-d3c1-40b8-825d-2413a407c03f}, !- Zone or ZoneList Name
  SupplyAirTemperature,                   !- Zone Cooling Design Supply Air Temperature Input Method
  14,                                     !- Zone Cooling Design Supply Air Temperature {C}
  11.11,                                  !- Zone Cooling Design Supply Air Temperature Difference {deltaC}
  SupplyAirTemperature,                   !- Zone Heating Design Supply Air Temperature Input Method
  40,                                     !- Zone Heating Design Supply Air Temperature {C}
  11.11,                                  !- Zone Heating Design Supply Air Temperature Difference {deltaC}
  0.0085,                                 !- Zone Cooling Design Supply Air Humidity Ratio {kg-H2O/kg-air}
  0.008,                                  !- Zone Heating Design Supply Air Humidity Ratio {kg-H2O/kg-air}
  ,                                       !- Zone Heating Sizing Factor
  ,                                       !- Zone Cooling Sizing Factor
  DesignDay,                              !- Cooling Design Air Flow Method
  ,                                       !- Cooling Design Air Flow Rate {m3/s}
  ,                                       !- Cooling Minimum Air Flow per Zone Floor Area {m3/s-m2}
  ,                                       !- Cooling Minimum Air Flow {m3/s}
  ,                                       !- Cooling Minimum Air Flow Fraction
  DesignDay,                              !- Heating Design Air Flow Method
  ,                                       !- Heating Design Air Flow Rate {m3/s}
  ,                                       !- Heating Maximum Air Flow per Zone Floor Area {m3/s-m2}
  ,                                       !- Heating Maximum Air Flow {m3/s}
  ,                                       !- Heating Maximum Air Flow Fraction
  ,                                       !- Design Zone Air Distribution Effectiveness in Cooling Mode
  ,                                       !- Design Zone Air Distribution Effectiveness in Heating Mode
  No,                                     !- Account for Dedicated Outdoor Air System
  NeutralSupplyAir,                       !- Dedicated Outdoor Air System Control Strategy
  autosize,                               !- Dedicated Outdoor Air Low Setpoint Temperature for Design {C}
  autosize;                               !- Dedicated Outdoor Air High Setpoint Temperature for Design {C}

OS:ZoneHVAC:EquipmentList,
  {35ad3c5c-6966-4770-8f14-73c7be6ac3d5}, !- Handle
  Zone HVAC Equipment List 1,             !- Name
  {1b64f07d-d3c1-40b8-825d-2413a407c03f}; !- Thermal Zone

OS:Space,
  {29f42ea1-5f29-4b6d-8dbd-abb2db3bff91}, !- Handle
  living space,                           !- Name
  {9c17711c-d72e-425b-b2e3-e3b9c84f07eb}, !- Space Type Name
  ,                                       !- Default Construction Set Name
  ,                                       !- Default Schedule Set Name
  ,                                       !- Direction of Relative North {deg}
  ,                                       !- X Origin {m}
  ,                                       !- Y Origin {m}
  ,                                       !- Z Origin {m}
  ,                                       !- Building Story Name
  {1b64f07d-d3c1-40b8-825d-2413a407c03f}, !- Thermal Zone Name
  ,                                       !- Part of Total Floor Area
  ,                                       !- Design Specification Outdoor Air Object Name
  {3dcc1bba-c195-4e9f-bc07-c029300b4b20}; !- Building Unit Name

OS:Surface,
  {e764f266-3fd9-4bd8-92c6-6d1127d2cefa}, !- Handle
  Surface 1,                              !- Name
  Floor,                                  !- Surface Type
  ,                                       !- Construction Name
  {29f42ea1-5f29-4b6d-8dbd-abb2db3bff91}, !- Space Name
  Foundation,                             !- Outside Boundary Condition
  ,                                       !- Outside Boundary Condition Object
  NoSun,                                  !- Sun Exposure
  NoWind,                                 !- Wind Exposure
  ,                                       !- View Factor to Ground
  ,                                       !- Number of Vertices
  0, -9.144, 0,                           !- X,Y,Z Vertex 1 {m}
  0, 0, 0,                                !- X,Y,Z Vertex 2 {m}
  4.572, 0, 0,                            !- X,Y,Z Vertex 3 {m}
  4.572, -9.144, 0;                       !- X,Y,Z Vertex 4 {m}

OS:Surface,
  {ddbca3d9-c049-45c6-80ce-34f69dc100c9}, !- Handle
  Surface 2,                              !- Name
  Wall,                                   !- Surface Type
  ,                                       !- Construction Name
  {29f42ea1-5f29-4b6d-8dbd-abb2db3bff91}, !- Space Name
  Outdoors,                               !- Outside Boundary Condition
  ,                                       !- Outside Boundary Condition Object
  SunExposed,                             !- Sun Exposure
  WindExposed,                            !- Wind Exposure
  ,                                       !- View Factor to Ground
  ,                                       !- Number of Vertices
  0, 0, 2.4384,                           !- X,Y,Z Vertex 1 {m}
  0, 0, 0,                                !- X,Y,Z Vertex 2 {m}
  0, -9.144, 0,                           !- X,Y,Z Vertex 3 {m}
  0, -9.144, 2.4384;                      !- X,Y,Z Vertex 4 {m}

OS:Surface,
  {9e4612c2-7094-4646-8f5e-d7ecc421e3f2}, !- Handle
  Surface 3,                              !- Name
  Wall,                                   !- Surface Type
  ,                                       !- Construction Name
  {29f42ea1-5f29-4b6d-8dbd-abb2db3bff91}, !- Space Name
  Outdoors,                               !- Outside Boundary Condition
  ,                                       !- Outside Boundary Condition Object
  SunExposed,                             !- Sun Exposure
  WindExposed,                            !- Wind Exposure
  ,                                       !- View Factor to Ground
  ,                                       !- Number of Vertices
  4.572, 0, 2.4384,                       !- X,Y,Z Vertex 1 {m}
  4.572, 0, 0,                            !- X,Y,Z Vertex 2 {m}
  0, 0, 0,                                !- X,Y,Z Vertex 3 {m}
  0, 0, 2.4384;                           !- X,Y,Z Vertex 4 {m}

OS:Surface,
  {18a58a4e-a639-46d7-aea5-a84b20214c34}, !- Handle
  Surface 4,                              !- Name
  Wall,                                   !- Surface Type
  ,                                       !- Construction Name
  {29f42ea1-5f29-4b6d-8dbd-abb2db3bff91}, !- Space Name
  Surface,                                !- Outside Boundary Condition
  {52358ffa-46d6-4666-af96-2d7929909457}, !- Outside Boundary Condition Object
  NoSun,                                  !- Sun Exposure
  NoWind,                                 !- Wind Exposure
  ,                                       !- View Factor to Ground
  ,                                       !- Number of Vertices
  4.572, -9.144, 2.4384,                  !- X,Y,Z Vertex 1 {m}
  4.572, -9.144, 0,                       !- X,Y,Z Vertex 2 {m}
  4.572, 0, 0,                            !- X,Y,Z Vertex 3 {m}
  4.572, 0, 2.4384;                       !- X,Y,Z Vertex 4 {m}

OS:Surface,
  {d95c8ee2-a850-46c4-ab2e-981b9bd8069a}, !- Handle
  Surface 5,                              !- Name
  Wall,                                   !- Surface Type
  ,                                       !- Construction Name
  {29f42ea1-5f29-4b6d-8dbd-abb2db3bff91}, !- Space Name
  Outdoors,                               !- Outside Boundary Condition
  ,                                       !- Outside Boundary Condition Object
  SunExposed,                             !- Sun Exposure
  WindExposed,                            !- Wind Exposure
  ,                                       !- View Factor to Ground
  ,                                       !- Number of Vertices
  0, -9.144, 2.4384,                      !- X,Y,Z Vertex 1 {m}
  0, -9.144, 0,                           !- X,Y,Z Vertex 2 {m}
  4.572, -9.144, 0,                       !- X,Y,Z Vertex 3 {m}
  4.572, -9.144, 2.4384;                  !- X,Y,Z Vertex 4 {m}

OS:Surface,
  {83eae0d3-3ba6-466f-9bb0-0caab947a5ce}, !- Handle
  Surface 6,                              !- Name
  RoofCeiling,                            !- Surface Type
  ,                                       !- Construction Name
  {29f42ea1-5f29-4b6d-8dbd-abb2db3bff91}, !- Space Name
  Surface,                                !- Outside Boundary Condition
  {7de552c6-ddaf-45d3-a959-469c9171343b}, !- Outside Boundary Condition Object
  NoSun,                                  !- Sun Exposure
  NoWind,                                 !- Wind Exposure
  ,                                       !- View Factor to Ground
  ,                                       !- Number of Vertices
  4.572, -9.144, 2.4384,                  !- X,Y,Z Vertex 1 {m}
  4.572, 0, 2.4384,                       !- X,Y,Z Vertex 2 {m}
  0, 0, 2.4384,                           !- X,Y,Z Vertex 3 {m}
  0, -9.144, 2.4384;                      !- X,Y,Z Vertex 4 {m}

OS:SpaceType,
  {9c17711c-d72e-425b-b2e3-e3b9c84f07eb}, !- Handle
  Space Type 1,                           !- Name
  ,                                       !- Default Construction Set Name
  ,                                       !- Default Schedule Set Name
  ,                                       !- Group Rendering Name
  ,                                       !- Design Specification Outdoor Air Object Name
  ,                                       !- Standards Template
  ,                                       !- Standards Building Type
  living;                                 !- Standards Space Type

OS:Surface,
  {7de552c6-ddaf-45d3-a959-469c9171343b}, !- Handle
  Surface 7,                              !- Name
  Floor,                                  !- Surface Type
  ,                                       !- Construction Name
  {679b6fb0-4a16-4764-b260-b564184c5202}, !- Space Name
  Surface,                                !- Outside Boundary Condition
  {83eae0d3-3ba6-466f-9bb0-0caab947a5ce}, !- Outside Boundary Condition Object
  NoSun,                                  !- Sun Exposure
  NoWind,                                 !- Wind Exposure
  ,                                       !- View Factor to Ground
  ,                                       !- Number of Vertices
  0, -9.144, 2.4384,                      !- X,Y,Z Vertex 1 {m}
  0, 0, 2.4384,                           !- X,Y,Z Vertex 2 {m}
  4.572, 0, 2.4384,                       !- X,Y,Z Vertex 3 {m}
  4.572, -9.144, 2.4384;                  !- X,Y,Z Vertex 4 {m}

OS:Surface,
  {6d6a4c88-1ed0-4431-b5e5-57e40eaf74c7}, !- Handle
  Surface 8,                              !- Name
  RoofCeiling,                            !- Surface Type
  ,                                       !- Construction Name
  {679b6fb0-4a16-4764-b260-b564184c5202}, !- Space Name
  Outdoors,                               !- Outside Boundary Condition
  ,                                       !- Outside Boundary Condition Object
  SunExposed,                             !- Sun Exposure
  WindExposed,                            !- Wind Exposure
  ,                                       !- View Factor to Ground
  ,                                       !- Number of Vertices
  2.286, 0, 3.5814,                       !- X,Y,Z Vertex 1 {m}
  0, 0, 2.4384,                           !- X,Y,Z Vertex 2 {m}
  0, -9.144, 2.4384,                      !- X,Y,Z Vertex 3 {m}
  2.286, -9.144, 3.5814;                  !- X,Y,Z Vertex 4 {m}

OS:Surface,
  {9c63ce1f-40ab-4851-8f2f-fa4017afbeb1}, !- Handle
  Surface 9,                              !- Name
  RoofCeiling,                            !- Surface Type
  ,                                       !- Construction Name
  {679b6fb0-4a16-4764-b260-b564184c5202}, !- Space Name
  Outdoors,                               !- Outside Boundary Condition
  ,                                       !- Outside Boundary Condition Object
  SunExposed,                             !- Sun Exposure
  WindExposed,                            !- Wind Exposure
  ,                                       !- View Factor to Ground
  ,                                       !- Number of Vertices
  2.286, -9.144, 3.5814,                  !- X,Y,Z Vertex 1 {m}
  4.572, -9.144, 2.4384,                  !- X,Y,Z Vertex 2 {m}
  4.572, 0, 2.4384,                       !- X,Y,Z Vertex 3 {m}
  2.286, 0, 3.5814;                       !- X,Y,Z Vertex 4 {m}

OS:Surface,
  {75ee818f-db64-4b42-b3b6-fe4103bd534a}, !- Handle
  Surface 10,                             !- Name
  Wall,                                   !- Surface Type
  ,                                       !- Construction Name
  {679b6fb0-4a16-4764-b260-b564184c5202}, !- Space Name
  Outdoors,                               !- Outside Boundary Condition
  ,                                       !- Outside Boundary Condition Object
  SunExposed,                             !- Sun Exposure
  WindExposed,                            !- Wind Exposure
  ,                                       !- View Factor to Ground
  ,                                       !- Number of Vertices
  2.286, -9.144, 3.5814,                  !- X,Y,Z Vertex 1 {m}
  0, -9.144, 2.4384,                      !- X,Y,Z Vertex 2 {m}
  4.572, -9.144, 2.4384;                  !- X,Y,Z Vertex 3 {m}

OS:Surface,
  {6f65a5ff-09de-448f-9876-8f734e882e48}, !- Handle
  Surface 11,                             !- Name
  Wall,                                   !- Surface Type
  ,                                       !- Construction Name
  {679b6fb0-4a16-4764-b260-b564184c5202}, !- Space Name
  Outdoors,                               !- Outside Boundary Condition
  ,                                       !- Outside Boundary Condition Object
  SunExposed,                             !- Sun Exposure
  WindExposed,                            !- Wind Exposure
  ,                                       !- View Factor to Ground
  ,                                       !- Number of Vertices
  2.286, 0, 3.5814,                       !- X,Y,Z Vertex 1 {m}
  4.572, 0, 2.4384,                       !- X,Y,Z Vertex 2 {m}
  0, 0, 2.4384;                           !- X,Y,Z Vertex 3 {m}

OS:Space,
  {679b6fb0-4a16-4764-b260-b564184c5202}, !- Handle
  finished attic space,                   !- Name
  {9c17711c-d72e-425b-b2e3-e3b9c84f07eb}, !- Space Type Name
  ,                                       !- Default Construction Set Name
  ,                                       !- Default Schedule Set Name
  ,                                       !- Direction of Relative North {deg}
  ,                                       !- X Origin {m}
  ,                                       !- Y Origin {m}
  ,                                       !- Z Origin {m}
  ,                                       !- Building Story Name
  {1b64f07d-d3c1-40b8-825d-2413a407c03f}, !- Thermal Zone Name
  ,                                       !- Part of Total Floor Area
  ,                                       !- Design Specification Outdoor Air Object Name
  {3dcc1bba-c195-4e9f-bc07-c029300b4b20}; !- Building Unit Name

OS:ThermalZone,
  {9b1656a2-ae74-4e73-a54f-739607de205b}, !- Handle
  living zone|unit 2,                     !- Name
  ,                                       !- Multiplier
  ,                                       !- Ceiling Height {m}
  ,                                       !- Volume {m3}
  ,                                       !- Floor Area {m2}
  ,                                       !- Zone Inside Convection Algorithm
  ,                                       !- Zone Outside Convection Algorithm
  ,                                       !- Zone Conditioning Equipment List Name
  {db307680-a234-41f4-8157-cae50d9437af}, !- Zone Air Inlet Port List
  {e4361050-74c4-4600-aa43-fc2bfcabc128}, !- Zone Air Exhaust Port List
  {2d62246c-cc95-4bc5-a01d-e5c603a80bc7}, !- Zone Air Node Name
  {f4d6e450-a7ea-48c5-b57f-5750b54d58db}, !- Zone Return Air Port List
  ,                                       !- Primary Daylighting Control Name
  ,                                       !- Fraction of Zone Controlled by Primary Daylighting Control
  ,                                       !- Secondary Daylighting Control Name
  ,                                       !- Fraction of Zone Controlled by Secondary Daylighting Control
  ,                                       !- Illuminance Map Name
  ,                                       !- Group Rendering Name
  ,                                       !- Thermostat Name
  No;                                     !- Use Ideal Air Loads

OS:Node,
  {5447d3d9-083b-4aa4-a915-e4b82fdb76a8}, !- Handle
  Node 2,                                 !- Name
  {2d62246c-cc95-4bc5-a01d-e5c603a80bc7}, !- Inlet Port
  ;                                       !- Outlet Port

OS:Connection,
  {2d62246c-cc95-4bc5-a01d-e5c603a80bc7}, !- Handle
  {c698ac21-a6b1-442b-afa8-cd3ce6dc18d7}, !- Name
  {9b1656a2-ae74-4e73-a54f-739607de205b}, !- Source Object
  11,                                     !- Outlet Port
  {5447d3d9-083b-4aa4-a915-e4b82fdb76a8}, !- Target Object
  2;                                      !- Inlet Port

OS:PortList,
  {db307680-a234-41f4-8157-cae50d9437af}, !- Handle
  {e0c2ab73-7ec5-44c1-985d-193a88a17832}, !- Name
  {9b1656a2-ae74-4e73-a54f-739607de205b}; !- HVAC Component

OS:PortList,
  {e4361050-74c4-4600-aa43-fc2bfcabc128}, !- Handle
  {c548c229-6072-4b4c-8681-7321bddd95db}, !- Name
  {9b1656a2-ae74-4e73-a54f-739607de205b}; !- HVAC Component

OS:PortList,
  {f4d6e450-a7ea-48c5-b57f-5750b54d58db}, !- Handle
  {bdeb5167-c5be-49da-bc27-bbd753f4635f}, !- Name
  {9b1656a2-ae74-4e73-a54f-739607de205b}; !- HVAC Component

OS:Sizing:Zone,
  {5c872ae1-8501-420f-a8fb-2b9f5cd0fa8e}, !- Handle
  {9b1656a2-ae74-4e73-a54f-739607de205b}, !- Zone or ZoneList Name
  SupplyAirTemperature,                   !- Zone Cooling Design Supply Air Temperature Input Method
  14,                                     !- Zone Cooling Design Supply Air Temperature {C}
  11.11,                                  !- Zone Cooling Design Supply Air Temperature Difference {deltaC}
  SupplyAirTemperature,                   !- Zone Heating Design Supply Air Temperature Input Method
  40,                                     !- Zone Heating Design Supply Air Temperature {C}
  11.11,                                  !- Zone Heating Design Supply Air Temperature Difference {deltaC}
  0.0085,                                 !- Zone Cooling Design Supply Air Humidity Ratio {kg-H2O/kg-air}
  0.008,                                  !- Zone Heating Design Supply Air Humidity Ratio {kg-H2O/kg-air}
  ,                                       !- Zone Heating Sizing Factor
  ,                                       !- Zone Cooling Sizing Factor
  DesignDay,                              !- Cooling Design Air Flow Method
  ,                                       !- Cooling Design Air Flow Rate {m3/s}
  ,                                       !- Cooling Minimum Air Flow per Zone Floor Area {m3/s-m2}
  ,                                       !- Cooling Minimum Air Flow {m3/s}
  ,                                       !- Cooling Minimum Air Flow Fraction
  DesignDay,                              !- Heating Design Air Flow Method
  ,                                       !- Heating Design Air Flow Rate {m3/s}
  ,                                       !- Heating Maximum Air Flow per Zone Floor Area {m3/s-m2}
  ,                                       !- Heating Maximum Air Flow {m3/s}
  ,                                       !- Heating Maximum Air Flow Fraction
  ,                                       !- Design Zone Air Distribution Effectiveness in Cooling Mode
  ,                                       !- Design Zone Air Distribution Effectiveness in Heating Mode
  No,                                     !- Account for Dedicated Outdoor Air System
  NeutralSupplyAir,                       !- Dedicated Outdoor Air System Control Strategy
  autosize,                               !- Dedicated Outdoor Air Low Setpoint Temperature for Design {C}
  autosize;                               !- Dedicated Outdoor Air High Setpoint Temperature for Design {C}

OS:ZoneHVAC:EquipmentList,
  {ed3bcf12-279e-4646-8a8e-965385c9e6ab}, !- Handle
  Zone HVAC Equipment List 2,             !- Name
  {9b1656a2-ae74-4e73-a54f-739607de205b}; !- Thermal Zone

OS:Space,
  {19e709df-84fe-49a0-b730-2da0acdeec47}, !- Handle
  living space|unit 2|story 1,            !- Name
  {9c17711c-d72e-425b-b2e3-e3b9c84f07eb}, !- Space Type Name
  ,                                       !- Default Construction Set Name
  ,                                       !- Default Schedule Set Name
  -0,                                     !- Direction of Relative North {deg}
  0,                                      !- X Origin {m}
  0,                                      !- Y Origin {m}
  0,                                      !- Z Origin {m}
  ,                                       !- Building Story Name
  {9b1656a2-ae74-4e73-a54f-739607de205b}, !- Thermal Zone Name
  ,                                       !- Part of Total Floor Area
  ,                                       !- Design Specification Outdoor Air Object Name
  {ea679d23-7a5e-4790-a02f-3bda7e7a295e}; !- Building Unit Name

OS:Surface,
  {6895c74c-3680-4ebb-8c26-66a06638b6fe}, !- Handle
  Surface 12,                             !- Name
  Wall,                                   !- Surface Type
  ,                                       !- Construction Name
  {19e709df-84fe-49a0-b730-2da0acdeec47}, !- Space Name
  Outdoors,                               !- Outside Boundary Condition
  ,                                       !- Outside Boundary Condition Object
  SunExposed,                             !- Sun Exposure
  WindExposed,                            !- Wind Exposure
  ,                                       !- View Factor to Ground
  ,                                       !- Number of Vertices
  9.144, 0, 2.4384,                       !- X,Y,Z Vertex 1 {m}
  9.144, 0, 0,                            !- X,Y,Z Vertex 2 {m}
  4.572, 0, 0,                            !- X,Y,Z Vertex 3 {m}
  4.572, 0, 2.4384;                       !- X,Y,Z Vertex 4 {m}

OS:Surface,
  {52358ffa-46d6-4666-af96-2d7929909457}, !- Handle
  Surface 13,                             !- Name
  Wall,                                   !- Surface Type
  ,                                       !- Construction Name
  {19e709df-84fe-49a0-b730-2da0acdeec47}, !- Space Name
  Surface,                                !- Outside Boundary Condition
  {18a58a4e-a639-46d7-aea5-a84b20214c34}, !- Outside Boundary Condition Object
  NoSun,                                  !- Sun Exposure
  NoWind,                                 !- Wind Exposure
  ,                                       !- View Factor to Ground
  ,                                       !- Number of Vertices
  4.572, 0, 2.4384,                       !- X,Y,Z Vertex 1 {m}
  4.572, 0, 0,                            !- X,Y,Z Vertex 2 {m}
  4.572, -9.144, 0,                       !- X,Y,Z Vertex 3 {m}
  4.572, -9.144, 2.4384;                  !- X,Y,Z Vertex 4 {m}

OS:Surface,
  {0ec0c37d-2510-4ae9-b8f2-f4cb68429e1f}, !- Handle
  Surface 14,                             !- Name
  Floor,                                  !- Surface Type
  ,                                       !- Construction Name
  {19e709df-84fe-49a0-b730-2da0acdeec47}, !- Space Name
  Foundation,                             !- Outside Boundary Condition
  ,                                       !- Outside Boundary Condition Object
  NoSun,                                  !- Sun Exposure
  NoWind,                                 !- Wind Exposure
  ,                                       !- View Factor to Ground
  ,                                       !- Number of Vertices
  4.572, -9.144, 0,                       !- X,Y,Z Vertex 1 {m}
  4.572, 0, 0,                            !- X,Y,Z Vertex 2 {m}
  9.144, 0, 0,                            !- X,Y,Z Vertex 3 {m}
  9.144, -9.144, 0;                       !- X,Y,Z Vertex 4 {m}

OS:Surface,
  {6c854570-6dc8-4cc7-8290-0aa30f3f1a84}, !- Handle
  Surface 15,                             !- Name
  Wall,                                   !- Surface Type
  ,                                       !- Construction Name
  {19e709df-84fe-49a0-b730-2da0acdeec47}, !- Space Name
  Surface,                                !- Outside Boundary Condition