!- NOTE: Auto-generated from /test/osw_files/SFA_10units_2story_UB_UA_3Beds_2Baths_Denver.osw

OS:Version,
  {b9e5a4df-48f9-4e02-adfb-c66f409fc175}, !- Handle
  2.9.1;                                  !- Version Identifier

OS:SimulationControl,
  {1f54f19e-08a9-441d-8c44-34337f7b6a42}, !- Handle
  ,                                       !- Do Zone Sizing Calculation
  ,                                       !- Do System Sizing Calculation
  ,                                       !- Do Plant Sizing Calculation
  No;                                     !- Run Simulation for Sizing Periods

OS:Timestep,
  {2ada156f-92f8-4da1-84ad-dd21747148ae}, !- Handle
  6;                                      !- Number of Timesteps per Hour

OS:ShadowCalculation,
  {91a217a1-6af2-4cb5-b1a7-4c4e98c78766}, !- Handle
  20,                                     !- Calculation Frequency
  200;                                    !- Maximum Figures in Shadow Overlap Calculations

OS:SurfaceConvectionAlgorithm:Outside,
  {419ddf3f-c81c-4eb2-88ad-a3f8f0137afd}, !- Handle
  DOE-2;                                  !- Algorithm

OS:SurfaceConvectionAlgorithm:Inside,
  {7df03b00-f258-48f8-adce-7decd86355c3}, !- Handle
  TARP;                                   !- Algorithm

OS:ZoneCapacitanceMultiplier:ResearchSpecial,
  {65290fb0-5301-43a4-a7ae-9fa8fa765e8b}, !- Handle
  ,                                       !- Temperature Capacity Multiplier
  15,                                     !- Humidity Capacity Multiplier
  ;                                       !- Carbon Dioxide Capacity Multiplier

OS:RunPeriod,
  {d84a7f41-ac21-4883-aa8e-f9a9d1d6fbd4}, !- Handle
  Run Period 1,                           !- Name
  1,                                      !- Begin Month
  1,                                      !- Begin Day of Month
  12,                                     !- End Month
  31,                                     !- End Day of Month
  ,                                       !- Use Weather File Holidays and Special Days
  ,                                       !- Use Weather File Daylight Saving Period
  ,                                       !- Apply Weekend Holiday Rule
  ,                                       !- Use Weather File Rain Indicators
  ,                                       !- Use Weather File Snow Indicators
  ;                                       !- Number of Times Runperiod to be Repeated

OS:YearDescription,
  {fe6d1920-1d5f-4d34-9b7e-d26f34d523ee}, !- Handle
  2007,                                   !- Calendar Year
  ,                                       !- Day of Week for Start Day
  ;                                       !- Is Leap Year

OS:ThermalZone,
  {7ac80817-bb47-4866-9c57-c5f74f2254d0}, !- Handle
  living zone,                            !- Name
  ,                                       !- Multiplier
  ,                                       !- Ceiling Height {m}
  ,                                       !- Volume {m3}
  ,                                       !- Floor Area {m2}
  ,                                       !- Zone Inside Convection Algorithm
  ,                                       !- Zone Outside Convection Algorithm
  ,                                       !- Zone Conditioning Equipment List Name
  {575de3eb-d5a5-4358-a5f7-fbb498ca9c2e}, !- Zone Air Inlet Port List
  {5e8884b5-7c42-4997-8c56-a31b750dcddf}, !- Zone Air Exhaust Port List
  {8454ac5c-3831-4248-bf24-b047fc85c8fa}, !- Zone Air Node Name
  {15e711e0-8e32-4118-9c78-5aa3445f8cab}, !- Zone Return Air Port List
  ,                                       !- Primary Daylighting Control Name
  ,                                       !- Fraction of Zone Controlled by Primary Daylighting Control
  ,                                       !- Secondary Daylighting Control Name
  ,                                       !- Fraction of Zone Controlled by Secondary Daylighting Control
  ,                                       !- Illuminance Map Name
  ,                                       !- Group Rendering Name
  ,                                       !- Thermostat Name
  No;                                     !- Use Ideal Air Loads

OS:Node,
  {9ee63957-f083-4df0-a0d5-28a478e2dfce}, !- Handle
  Node 1,                                 !- Name
  {8454ac5c-3831-4248-bf24-b047fc85c8fa}, !- Inlet Port
  ;                                       !- Outlet Port

OS:Connection,
  {8454ac5c-3831-4248-bf24-b047fc85c8fa}, !- Handle
  {6e75147b-1709-4894-8a90-457ce4159fc7}, !- Name
  {7ac80817-bb47-4866-9c57-c5f74f2254d0}, !- Source Object
  11,                                     !- Outlet Port
  {9ee63957-f083-4df0-a0d5-28a478e2dfce}, !- Target Object
  2;                                      !- Inlet Port

OS:PortList,
  {575de3eb-d5a5-4358-a5f7-fbb498ca9c2e}, !- Handle
  {77e453f6-ce26-4293-8bb9-ac893416255f}, !- Name
  {7ac80817-bb47-4866-9c57-c5f74f2254d0}; !- HVAC Component

OS:PortList,
  {5e8884b5-7c42-4997-8c56-a31b750dcddf}, !- Handle
  {45779ba0-d268-49d5-9f31-39b41b4ba055}, !- Name
  {7ac80817-bb47-4866-9c57-c5f74f2254d0}; !- HVAC Component

OS:PortList,
  {15e711e0-8e32-4118-9c78-5aa3445f8cab}, !- Handle
  {f2a98620-b28a-4974-b2e7-b674adf7eafa}, !- Name
  {7ac80817-bb47-4866-9c57-c5f74f2254d0}; !- HVAC Component

OS:Sizing:Zone,
  {ca117afd-68aa-4aef-b53e-995b9e193914}, !- Handle
  {7ac80817-bb47-4866-9c57-c5f74f2254d0}, !- Zone or ZoneList Name
  SupplyAirTemperature,                   !- Zone Cooling Design Supply Air Temperature Input Method
  14,                                     !- Zone Cooling Design Supply Air Temperature {C}
  11.11,                                  !- Zone Cooling Design Supply Air Temperature Difference {deltaC}
  SupplyAirTemperature,                   !- Zone Heating Design Supply Air Temperature Input Method
  40,                                     !- Zone Heating Design Supply Air Temperature {C}
  11.11,                                  !- Zone Heating Design Supply Air Temperature Difference {deltaC}
  0.0085,                                 !- Zone Cooling Design Supply Air Humidity Ratio {kg-H2O/kg-air}
  0.008,                                  !- Zone Heating Design Supply Air Humidity Ratio {kg-H2O/kg-air}
  ,                                       !- Zone Heating Sizing Factor
  ,                                       !- Zone Cooling Sizing Factor
  DesignDay,                              !- Cooling Design Air Flow Method
  ,                                       !- Cooling Design Air Flow Rate {m3/s}
  ,                                       !- Cooling Minimum Air Flow per Zone Floor Area {m3/s-m2}
  ,                                       !- Cooling Minimum Air Flow {m3/s}
  ,                                       !- Cooling Minimum Air Flow Fraction
  DesignDay,                              !- Heating Design Air Flow Method
  ,                                       !- Heating Design Air Flow Rate {m3/s}
  ,                                       !- Heating Maximum Air Flow per Zone Floor Area {m3/s-m2}
  ,                                       !- Heating Maximum Air Flow {m3/s}
  ,                                       !- Heating Maximum Air Flow Fraction
  ,                                       !- Design Zone Air Distribution Effectiveness in Cooling Mode
  ,                                       !- Design Zone Air Distribution Effectiveness in Heating Mode
  No,                                     !- Account for Dedicated Outdoor Air System
  NeutralSupplyAir,                       !- Dedicated Outdoor Air System Control Strategy
  autosize,                               !- Dedicated Outdoor Air Low Setpoint Temperature for Design {C}
  autosize;                               !- Dedicated Outdoor Air High Setpoint Temperature for Design {C}

OS:ZoneHVAC:EquipmentList,
  {c56e20dd-d689-4e28-89be-fd97bc277a1f}, !- Handle
  Zone HVAC Equipment List 1,             !- Name
  {7ac80817-bb47-4866-9c57-c5f74f2254d0}; !- Thermal Zone

OS:Space,
  {200a30b6-00fb-4237-bb7c-d2f1ebcaa7cc}, !- Handle
  living space,                           !- Name
  {2c506d65-1011-4e59-9213-9abfec2eee01}, !- Space Type Name
  ,                                       !- Default Construction Set Name
  ,                                       !- Default Schedule Set Name
  ,                                       !- Direction of Relative North {deg}
  ,                                       !- X Origin {m}
  ,                                       !- Y Origin {m}
  ,                                       !- Z Origin {m}
  ,                                       !- Building Story Name
  {7ac80817-bb47-4866-9c57-c5f74f2254d0}, !- Thermal Zone Name
  ,                                       !- Part of Total Floor Area
  ,                                       !- Design Specification Outdoor Air Object Name
  {255f715d-a81c-4421-8260-4d6ba62a31b0}; !- Building Unit Name

OS:Surface,
  {fe2726c2-881b-4ebf-964c-562b95f8ca80}, !- Handle
  Surface 1,                              !- Name
  Floor,                                  !- Surface Type
  ,                                       !- Construction Name
  {200a30b6-00fb-4237-bb7c-d2f1ebcaa7cc}, !- Space Name
  Surface,                                !- Outside Boundary Condition
  {5d9390fa-4e84-46a5-ae4d-5acaf5e42f2b}, !- Outside Boundary Condition Object
  NoSun,                                  !- Sun Exposure
  NoWind,                                 !- Wind Exposure
  ,                                       !- View Factor to Ground
  ,                                       !- Number of Vertices
  0, -9.144, 0,                           !- X,Y,Z Vertex 1 {m}
  0, 0, 0,                                !- X,Y,Z Vertex 2 {m}
  4.572, 0, 0,                            !- X,Y,Z Vertex 3 {m}
  4.572, -9.144, 0;                       !- X,Y,Z Vertex 4 {m}

OS:Surface,
  {0e8b7c60-7fc5-47ac-9339-9efe3e7dc24d}, !- Handle
  Surface 2,                              !- Name
  Wall,                                   !- Surface Type
  ,                                       !- Construction Name
  {200a30b6-00fb-4237-bb7c-d2f1ebcaa7cc}, !- Space Name
  Outdoors,                               !- Outside Boundary Condition
  ,                                       !- Outside Boundary Condition Object
  SunExposed,                             !- Sun Exposure
  WindExposed,                            !- Wind Exposure
  ,                                       !- View Factor to Ground
  ,                                       !- Number of Vertices
  0, 0, 2.4384,                           !- X,Y,Z Vertex 1 {m}
  0, 0, 0,                                !- X,Y,Z Vertex 2 {m}
  0, -9.144, 0,                           !- X,Y,Z Vertex 3 {m}
  0, -9.144, 2.4384;                      !- X,Y,Z Vertex 4 {m}

OS:Surface,
  {c9becb96-f07c-4cc2-9613-86a99b97e765}, !- Handle
  Surface 3,                              !- Name
  Wall,                                   !- Surface Type
  ,                                       !- Construction Name
  {200a30b6-00fb-4237-bb7c-d2f1ebcaa7cc}, !- Space Name
  Outdoors,                               !- Outside Boundary Condition
  ,                                       !- Outside Boundary Condition Object
  SunExposed,                             !- Sun Exposure
  WindExposed,                            !- Wind Exposure
  ,                                       !- View Factor to Ground
  ,                                       !- Number of Vertices
  4.572, 0, 2.4384,                       !- X,Y,Z Vertex 1 {m}
  4.572, 0, 0,                            !- X,Y,Z Vertex 2 {m}
  0, 0, 0,                                !- X,Y,Z Vertex 3 {m}
  0, 0, 2.4384;                           !- X,Y,Z Vertex 4 {m}

OS:Surface,
  {002505ec-2b2e-4e1a-8d4a-bb44e5ebc627}, !- Handle
  Surface 4,                              !- Name
  Wall,                                   !- Surface Type
  ,                                       !- Construction Name
  {200a30b6-00fb-4237-bb7c-d2f1ebcaa7cc}, !- Space Name
  Surface,                                !- Outside Boundary Condition
  {b65f9b47-427c-4c64-a073-89aa5f863e70}, !- Outside Boundary Condition Object
  NoSun,                                  !- Sun Exposure
  NoWind,                                 !- Wind Exposure
  ,                                       !- View Factor to Ground
  ,                                       !- Number of Vertices
  4.572, -9.144, 2.4384,                  !- X,Y,Z Vertex 1 {m}
  4.572, -9.144, 0,                       !- X,Y,Z Vertex 2 {m}
  4.572, 0, 0,                            !- X,Y,Z Vertex 3 {m}
  4.572, 0, 2.4384;                       !- X,Y,Z Vertex 4 {m}

OS:Surface,
  {62ed61f1-c9a9-4be2-81d2-f677896952e2}, !- Handle
  Surface 5,                              !- Name
  Wall,                                   !- Surface Type
  ,                                       !- Construction Name
  {200a30b6-00fb-4237-bb7c-d2f1ebcaa7cc}, !- Space Name
  Outdoors,                               !- Outside Boundary Condition
  ,                                       !- Outside Boundary Condition Object
  SunExposed,                             !- Sun Exposure
  WindExposed,                            !- Wind Exposure
  ,                                       !- View Factor to Ground
  ,                                       !- Number of Vertices
  0, -9.144, 2.4384,                      !- X,Y,Z Vertex 1 {m}
  0, -9.144, 0,                           !- X,Y,Z Vertex 2 {m}
  4.572, -9.144, 0,                       !- X,Y,Z Vertex 3 {m}
  4.572, -9.144, 2.4384;                  !- X,Y,Z Vertex 4 {m}

OS:Surface,
  {df7f4ec5-7c87-4374-b77a-89d48a7beb32}, !- Handle
  Surface 6,                              !- Name
  RoofCeiling,                            !- Surface Type
  ,                                       !- Construction Name
  {200a30b6-00fb-4237-bb7c-d2f1ebcaa7cc}, !- Space Name
  Surface,                                !- Outside Boundary Condition
  {e1112e64-2ec0-411f-9b3b-a496b5137c77}, !- Outside Boundary Condition Object
  NoSun,                                  !- Sun Exposure
  NoWind,                                 !- Wind Exposure
  ,                                       !- View Factor to Ground
  ,                                       !- Number of Vertices
  4.572, -9.144, 2.4384,                  !- X,Y,Z Vertex 1 {m}
  4.572, 0, 2.4384,                       !- X,Y,Z Vertex 2 {m}
  0, 0, 2.4384,                           !- X,Y,Z Vertex 3 {m}
  0, -9.144, 2.4384;                      !- X,Y,Z Vertex 4 {m}

OS:SpaceType,
  {2c506d65-1011-4e59-9213-9abfec2eee01}, !- Handle
  Space Type 1,                           !- Name
  ,                                       !- Default Construction Set Name
  ,                                       !- Default Schedule Set Name
  ,                                       !- Group Rendering Name
  ,                                       !- Design Specification Outdoor Air Object Name
  ,                                       !- Standards Template
  ,                                       !- Standards Building Type
  living;                                 !- Standards Space Type

OS:Space,
  {2600a106-67f3-43d2-9ce6-e50fc88e58a7}, !- Handle
  living space|story 2,                   !- Name
  {2c506d65-1011-4e59-9213-9abfec2eee01}, !- Space Type Name
  ,                                       !- Default Construction Set Name
  ,                                       !- Default Schedule Set Name
  -0,                                     !- Direction of Relative North {deg}
  0,                                      !- X Origin {m}
  0,                                      !- Y Origin {m}
  2.4384,                                 !- Z Origin {m}
  ,                                       !- Building Story Name
  {7ac80817-bb47-4866-9c57-c5f74f2254d0}, !- Thermal Zone Name
  ,                                       !- Part of Total Floor Area
  ,                                       !- Design Specification Outdoor Air Object Name
  {255f715d-a81c-4421-8260-4d6ba62a31b0}; !- Building Unit Name

OS:Surface,
  {9cc27f91-8202-43ac-8bfe-c60b10f1d5fb}, !- Handle
  Surface 7,                              !- Name
  Wall,                                   !- Surface Type
  ,                                       !- Construction Name
  {2600a106-67f3-43d2-9ce6-e50fc88e58a7}, !- Space Name
  Surface,                                !- Outside Boundary Condition
  {9757ced4-ca36-49bf-bb5b-02b7ed794965}, !- Outside Boundary Condition Object
  NoSun,                                  !- Sun Exposure
  NoWind,                                 !- Wind Exposure
  ,                                       !- View Factor to Ground
  ,                                       !- Number of Vertices
  4.572, -9.144, 2.4384,                  !- X,Y,Z Vertex 1 {m}
  4.572, -9.144, 0,                       !- X,Y,Z Vertex 2 {m}
  4.572, 0, 0,                            !- X,Y,Z Vertex 3 {m}
  4.572, 0, 2.4384;                       !- X,Y,Z Vertex 4 {m}

OS:Surface,
  {8077f326-fe89-4e7d-8013-cb9d7db7fa07}, !- Handle
  Surface 8,                              !- Name
  Wall,                                   !- Surface Type
  ,                                       !- Construction Name
  {2600a106-67f3-43d2-9ce6-e50fc88e58a7}, !- Space Name
  Outdoors,                               !- Outside Boundary Condition
  ,                                       !- Outside Boundary Condition Object
  SunExposed,                             !- Sun Exposure
  WindExposed,                            !- Wind Exposure
  ,                                       !- View Factor to Ground
  ,                                       !- Number of Vertices
  0, -9.144, 2.4384,                      !- X,Y,Z Vertex 1 {m}
  0, -9.144, 0,                           !- X,Y,Z Vertex 2 {m}
  4.572, -9.144, 0,                       !- X,Y,Z Vertex 3 {m}
  4.572, -9.144, 2.4384;                  !- X,Y,Z Vertex 4 {m}

OS:Surface,
  {e1112e64-2ec0-411f-9b3b-a496b5137c77}, !- Handle
  Surface 9,                              !- Name
  Floor,                                  !- Surface Type
  ,                                       !- Construction Name
  {2600a106-67f3-43d2-9ce6-e50fc88e58a7}, !- Space Name
  Surface,                                !- Outside Boundary Condition
  {df7f4ec5-7c87-4374-b77a-89d48a7beb32}, !- Outside Boundary Condition Object
  NoSun,                                  !- Sun Exposure
  NoWind,                                 !- Wind Exposure
  ,                                       !- View Factor to Ground
  ,                                       !- Number of Vertices
  0, -9.144, 0,                           !- X,Y,Z Vertex 1 {m}
  0, 0, 0,                                !- X,Y,Z Vertex 2 {m}
  4.572, 0, 0,                            !- X,Y,Z Vertex 3 {m}
  4.572, -9.144, 0;                       !- X,Y,Z Vertex 4 {m}

OS:Surface,
  {9aed51a6-6ddf-4670-a37e-9b7da3517ffa}, !- Handle
  Surface 10,                             !- Name
  Wall,                                   !- Surface Type
  ,                                       !- Construction Name
  {2600a106-67f3-43d2-9ce6-e50fc88e58a7}, !- Space Name
  Outdoors,                               !- Outside Boundary Condition
  ,                                       !- Outside Boundary Condition Object
  SunExposed,                             !- Sun Exposure
  WindExposed,                            !- Wind Exposure
  ,                                       !- View Factor to Ground
  ,                                       !- Number of Vertices
  4.572, 0, 2.4384,                       !- X,Y,Z Vertex 1 {m}
  4.572, 0, 0,                            !- X,Y,Z Vertex 2 {m}
  0, 0, 0,                                !- X,Y,Z Vertex 3 {m}
  0, 0, 2.4384;                           !- X,Y,Z Vertex 4 {m}

OS:Surface,
  {649c44e6-5ca4-40a9-ad70-dd4f5cce9bf6}, !- Handle
  Surface 11,                             !- Name
  RoofCeiling,                            !- Surface Type
  ,                                       !- Construction Name
  {2600a106-67f3-43d2-9ce6-e50fc88e58a7}, !- Space Name
  Surface,                                !- Outside Boundary Condition
  {bf82200a-fc96-456b-a679-9e06d6b5dd78}, !- Outside Boundary Condition Object
  NoSun,                                  !- Sun Exposure
  NoWind,                                 !- Wind Exposure
  ,                                       !- View Factor to Ground
  ,                                       !- Number of Vertices
  4.572, -9.144, 2.4384,                  !- X,Y,Z Vertex 1 {m}
  4.572, 0, 2.4384,                       !- X,Y,Z Vertex 2 {m}
  0, 0, 2.4384,                           !- X,Y,Z Vertex 3 {m}
  0, -9.144, 2.4384;                      !- X,Y,Z Vertex 4 {m}

OS:Surface,
  {ba6d65f3-f2d4-4ba3-9a59-ff30164483a0}, !- Handle
  Surface 12,                             !- Name
  Wall,                                   !- Surface Type
  ,                                       !- Construction Name
  {2600a106-67f3-43d2-9ce6-e50fc88e58a7}, !- Space Name
  Outdoors,                               !- Outside Boundary Condition
  ,                                       !- Outside Boundary Condition Object
  SunExposed,                             !- Sun Exposure
  WindExposed,                            !- Wind Exposure
  ,                                       !- View Factor to Ground
  ,                                       !- Number of Vertices
  0, 0, 2.4384,                           !- X,Y,Z Vertex 1 {m}
  0, 0, 0,                                !- X,Y,Z Vertex 2 {m}
  0, -9.144, 0,                           !- X,Y,Z Vertex 3 {m}
  0, -9.144, 2.4384;                      !- X,Y,Z Vertex 4 {m}

OS:ThermalZone,
  {71215859-52cb-4c11-891f-83f0a0bd9809}, !- Handle
  living zone|unit 2,                     !- Name
  ,                                       !- Multiplier
  ,                                       !- Ceiling Height {m}
  ,                                       !- Volume {m3}
  ,                                       !- Floor Area {m2}
  ,                                       !- Zone Inside Convection Algorithm
  ,                                       !- Zone Outside Convection Algorithm
  ,                                       !- Zone Conditioning Equipment List Name
  {9db00e94-51d7-47ae-a047-754700b2e4da}, !- Zone Air Inlet Port List
  {d971615b-77e2-43dc-aed7-4970f425d84e}, !- Zone Air Exhaust Port List
  {e40e32c2-cbcd-4b15-9a4a-4ed64805b3bb}, !- Zone Air Node Name
  {3b97481d-6fc6-4946-a82d-5c5940769daa}, !- Zone Return Air Port List
  ,                                       !- Primary Daylighting Control Name
  ,                                       !- Fraction of Zone Controlled by Primary Daylighting Control
  ,                                       !- Secondary Daylighting Control Name
  ,                                       !- Fraction of Zone Controlled by Secondary Daylighting Control
  ,                                       !- Illuminance Map Name
  ,                                       !- Group Rendering Name
  ,                                       !- Thermostat Name
  No;                                     !- Use Ideal Air Loads

OS:Node,
  {b3d63f45-62e4-456a-8123-2037c4bb7215}, !- Handle
  Node 2,                                 !- Name
  {e40e32c2-cbcd-4b15-9a4a-4ed64805b3bb}, !- Inlet Port
  ;                                       !- Outlet Port

OS:Connection,
  {e40e32c2-cbcd-4b15-9a4a-4ed64805b3bb}, !- Handle
  {c6543a0c-ffde-46c6-ac59-bf7c85512d3e}, !- Name
  {71215859-52cb-4c11-891f-83f0a0bd9809}, !- Source Object
  11,                                     !- Outlet Port
  {b3d63f45-62e4-456a-8123-2037c4bb7215}, !- Target Object
  2;                                      !- Inlet Port

OS:PortList,
  {9db00e94-51d7-47ae-a047-754700b2e4da}, !- Handle
  {35da070a-29df-4eab-a2ab-7a90a96e2cc0}, !- Name
  {71215859-52cb-4c11-891f-83f0a0bd9809}; !- HVAC Component

OS:PortList,
  {d971615b-77e2-43dc-aed7-4970f425d84e}, !- Handle
  {a0cdbc4d-dba3-4ac5-86c3-d3adca265808}, !- Name
  {71215859-52cb-4c11-891f-83f0a0bd9809}; !- HVAC Component

OS:PortList,
  {3b97481d-6fc6-4946-a82d-5c5940769daa}, !- Handle
  {11c12a04-381d-4470-b1df-6993268aab6a}, !- Name
  {71215859-52cb-4c11-891f-83f0a0bd9809}; !- HVAC Component

OS:Sizing:Zone,
  {e9e24015-7eb0-4a4d-8e27-92895a121516}, !- Handle
  {71215859-52cb-4c11-891f-83f0a0bd9809}, !- Zone or ZoneList Name
  SupplyAirTemperature,                   !- Zone Cooling Design Supply Air Temperature Input Method
  14,                                     !- Zone Cooling Design Supply Air Temperature {C}
  11.11,                                  !- Zone Cooling Design Supply Air Temperature Difference {deltaC}
  SupplyAirTemperature,                   !- Zone Heating Design Supply Air Temperature Input Method
  40,                                     !- Zone Heating Design Supply Air Temperature {C}
  11.11,                                  !- Zone Heating Design Supply Air Temperature Difference {deltaC}
  0.0085,                                 !- Zone Cooling Design Supply Air Humidity Ratio {kg-H2O/kg-air}
  0.008,                                  !- Zone Heating Design Supply Air Humidity Ratio {kg-H2O/kg-air}
  ,                                       !- Zone Heating Sizing Factor
  ,                                       !- Zone Cooling Sizing Factor
  DesignDay,                              !- Cooling Design Air Flow Method
  ,                                       !- Cooling Design Air Flow Rate {m3/s}
  ,                                       !- Cooling Minimum Air Flow per Zone Floor Area {m3/s-m2}
  ,                                       !- Cooling Minimum Air Flow {m3/s}
  ,                                       !- Cooling Minimum Air Flow Fraction
  DesignDay,                              !- Heating Design Air Flow Method
  ,                                       !- Heating Design Air Flow Rate {m3/s}
  ,                                       !- Heating Maximum Air Flow per Zone Floor Area {m3/s-m2}
  ,                                       !- Heating Maximum Air Flow {m3/s}
  ,                                       !- Heating Maximum Air Flow Fraction
  ,                                       !- Design Zone Air Distribution Effectiveness in Cooling Mode
  ,                                       !- Design Zone Air Distribution Effectiveness in Heating Mode
  No,                                     !- Account for Dedicated Outdoor Air System
  NeutralSupplyAir,                       !- Dedicated Outdoor Air System Control Strategy
  autosize,                               !- Dedicated Outdoor Air Low Setpoint Temperature for Design {C}
  autosize;                               !- Dedicated Outdoor Air High Setpoint Temperature for Design {C}

OS:ZoneHVAC:EquipmentList,
  {3be5619f-7a91-4a99-be70-caaec61d60af}, !- Handle
  Zone HVAC Equipment List 2,             !- Name
  {71215859-52cb-4c11-891f-83f0a0bd9809}; !- Thermal Zone

OS:Space,
  {5db8e0cd-8c84-43cb-b9f3-493d1ba69e32}, !- Handle
  living space|unit 2|story 1,            !- Name
  {2c506d65-1011-4e59-9213-9abfec2eee01}, !- Space Type Name
  ,                                       !- Default Construction Set Name
  ,                                       !- Default Schedule Set Name
  -0,                                     !- Direction of Relative North {deg}
  0,                                      !- X Origin {m}
  0,                                      !- Y Origin {m}
  0,                                      !- Z Origin {m}
  ,                                       !- Building Story Name
  {71215859-52cb-4c11-891f-83f0a0bd9809}, !- Thermal Zone Name
  ,                                       !- Part of Total Floor Area
  ,                                       !- Design Specification Outdoor Air Object Name
  {14e88af4-3b1d-4a52-8850-97697054dbad}; !- Building Unit Name

OS:Surface,
  {1ad72be0-2f61-4ef4-a956-d4d61b7c36c0}, !- Handle
  Surface 18,                             !- Name
  Wall,                                   !- Surface Type
  ,                                       !- Construction Name
  {5db8e0cd-8c84-43cb-b9f3-493d1ba69e32}, !- Space Name
  Surface,                                !- Outside Boundary Condition
  {12fe755f-1119-4768-8b7f-cc29d12a81b4}, !- Outside Boundary Condition Object
  NoSun,                                  !- Sun Exposure
  NoWind,                                 !- Wind Exposure
  ,                                       !- View Factor to Ground
  ,                                       !- Number of Vertices
  9.144, -9.144, 2.4384,                  !- X,Y,Z Vertex 1 {m}
  9.144, -9.144, 0,                       !- X,Y,Z Vertex 2 {m}
  9.144, 0, 0,                            !- X,Y,Z Vertex 3 {m}
  9.144, 0, 2.4384;                       !- X,Y,Z Vertex 4 {m}

OS:Surface,
  {817565ff-fccf-4474-94de-d3caee7a18f9}, !- Handle
  Surface 19,                             !- Name
  Wall,                                   !- Surface Type
  ,                                       !- Construction Name
  {5db8e0cd-8c84-43cb-b9f3-493d1ba69e32}, !- Space Name
  Outdoors,                               !- Outside Boundary Condition
  ,                                       !- Outside Boundary Condition Object
  SunExposed,                             !- Sun Exposure
  WindExposed,                            !- Wind Exposure
  ,                                       !- View Factor to Ground
  ,                                       !- Number of Vertices
  4.572, -9.144, 2.4384,                  !- X,Y,Z Vertex 1 {m}
  4.572, -9.144, 0,                       !- X,Y,Z Vertex 2 {m}
  9.144, -9.144, 0,                       !- X,Y,Z Vertex 3 {m}
  9.144, -9.144, 2.4384;                  !- X,Y,Z Vertex 4 {m}

OS:Surface,