!- NOTE: Auto-generated from /test/osw_files/SFA_10units_2story_SL_UA_3Beds_2Baths_Denver_HasRearUnits.osw

OS:Version,
  {fbe7833d-3b00-409c-9e80-a07a9df57746}, !- Handle
  3.0.0;                                  !- Version Identifier

OS:SimulationControl,
  {dbc1d696-c1cf-4d0c-bb4d-5eb7bce3213a}, !- Handle
  ,                                       !- Do Zone Sizing Calculation
  ,                                       !- Do System Sizing Calculation
  ,                                       !- Do Plant Sizing Calculation
  No;                                     !- Run Simulation for Sizing Periods

OS:Timestep,
  {e528dce8-4a20-4d96-8d93-a1a0e6916168}, !- Handle
  6;                                      !- Number of Timesteps per Hour

OS:ShadowCalculation,
  {00e277be-cdc8-4136-8616-bfb1b91d2563}, !- Handle
  PolygonClipping,                        !- Shading Calculation Method
  ,                                       !- Shading Calculation Update Frequency Method
  20,                                     !- Shading Calculation Update Frequency
  200,                                    !- Maximum Figures in Shadow Overlap Calculations
  ,                                       !- Polygon Clipping Algorithm
  512,                                    !- Pixel Counting Resolution
  ,                                       !- Sky Diffuse Modeling Algorithm
  No,                                     !- Output External Shading Calculation Results
  No,                                     !- Disable Self-Shading Within Shading Zone Groups
  No;                                     !- Disable Self-Shading From Shading Zone Groups to Other Zones

OS:SurfaceConvectionAlgorithm:Outside,
  {3c5d06c1-e23a-4b24-ab07-06abe3d725f5}, !- Handle
  DOE-2;                                  !- Algorithm

OS:SurfaceConvectionAlgorithm:Inside,
  {d3dd4abc-c75f-46ad-9578-716acc58fb45}, !- Handle
  TARP;                                   !- Algorithm

OS:ZoneCapacitanceMultiplier:ResearchSpecial,
  {7d215041-ac3c-4dda-85b8-c5e31fe704c9}, !- Handle
  ,                                       !- Temperature Capacity Multiplier
  15,                                     !- Humidity Capacity Multiplier
  ;                                       !- Carbon Dioxide Capacity Multiplier

OS:RunPeriod,
  {e032df99-7d72-4977-9d56-a3965d7188ef}, !- Handle
  Run Period 1,                           !- Name
  1,                                      !- Begin Month
  1,                                      !- Begin Day of Month
  12,                                     !- End Month
  31,                                     !- End Day of Month
  ,                                       !- Use Weather File Holidays and Special Days
  ,                                       !- Use Weather File Daylight Saving Period
  ,                                       !- Apply Weekend Holiday Rule
  ,                                       !- Use Weather File Rain Indicators
  ,                                       !- Use Weather File Snow Indicators
  ;                                       !- Number of Times Runperiod to be Repeated

OS:YearDescription,
  {c83e78b7-44c9-4445-8833-e87e1bcc128b}, !- Handle
  2007,                                   !- Calendar Year
  ,                                       !- Day of Week for Start Day
  ;                                       !- Is Leap Year

OS:ThermalZone,
  {dcda2c53-5395-4f09-aa9c-079b708d9c30}, !- Handle
  living zone,                            !- Name
  ,                                       !- Multiplier
  ,                                       !- Ceiling Height {m}
  ,                                       !- Volume {m3}
  ,                                       !- Floor Area {m2}
  ,                                       !- Zone Inside Convection Algorithm
  ,                                       !- Zone Outside Convection Algorithm
  ,                                       !- Zone Conditioning Equipment List Name
  {83a0b5c3-40d2-4b2a-be58-74dc66efde06}, !- Zone Air Inlet Port List
  {7fe05d53-e210-4272-b074-0bf06389016a}, !- Zone Air Exhaust Port List
  {ced421ce-3b8f-4d49-bde4-f631f79e0b05}, !- Zone Air Node Name
  {44f88ff8-29eb-4424-b130-82665600e16f}, !- Zone Return Air Port List
  ,                                       !- Primary Daylighting Control Name
  ,                                       !- Fraction of Zone Controlled by Primary Daylighting Control
  ,                                       !- Secondary Daylighting Control Name
  ,                                       !- Fraction of Zone Controlled by Secondary Daylighting Control
  ,                                       !- Illuminance Map Name
  ,                                       !- Group Rendering Name
  ,                                       !- Thermostat Name
  No;                                     !- Use Ideal Air Loads

OS:Node,
  {c1cc88d4-3b84-400c-9640-799d9d4c3c04}, !- Handle
  Node 1,                                 !- Name
  {ced421ce-3b8f-4d49-bde4-f631f79e0b05}, !- Inlet Port
  ;                                       !- Outlet Port

OS:Connection,
  {ced421ce-3b8f-4d49-bde4-f631f79e0b05}, !- Handle
  {f77d62a6-fff7-49bb-a34f-199551f51863}, !- Name
  {dcda2c53-5395-4f09-aa9c-079b708d9c30}, !- Source Object
  11,                                     !- Outlet Port
  {c1cc88d4-3b84-400c-9640-799d9d4c3c04}, !- Target Object
  2;                                      !- Inlet Port

OS:PortList,
  {83a0b5c3-40d2-4b2a-be58-74dc66efde06}, !- Handle
  {0283012e-0d5f-4651-8396-3614dbeb39a7}, !- Name
  {dcda2c53-5395-4f09-aa9c-079b708d9c30}; !- HVAC Component

OS:PortList,
  {7fe05d53-e210-4272-b074-0bf06389016a}, !- Handle
  {c194923e-baf1-43c2-8509-1b9171146ab9}, !- Name
  {dcda2c53-5395-4f09-aa9c-079b708d9c30}; !- HVAC Component

OS:PortList,
  {44f88ff8-29eb-4424-b130-82665600e16f}, !- Handle
  {1a43907d-461f-4317-b9ef-d757c8e2169d}, !- Name
  {dcda2c53-5395-4f09-aa9c-079b708d9c30}; !- HVAC Component

OS:Sizing:Zone,
  {1cb7924f-593f-4917-b5aa-1351e9224e82}, !- Handle
  {dcda2c53-5395-4f09-aa9c-079b708d9c30}, !- Zone or ZoneList Name
  SupplyAirTemperature,                   !- Zone Cooling Design Supply Air Temperature Input Method
  14,                                     !- Zone Cooling Design Supply Air Temperature {C}
  11.11,                                  !- Zone Cooling Design Supply Air Temperature Difference {deltaC}
  SupplyAirTemperature,                   !- Zone Heating Design Supply Air Temperature Input Method
  40,                                     !- Zone Heating Design Supply Air Temperature {C}
  11.11,                                  !- Zone Heating Design Supply Air Temperature Difference {deltaC}
  0.0085,                                 !- Zone Cooling Design Supply Air Humidity Ratio {kg-H2O/kg-air}
  0.008,                                  !- Zone Heating Design Supply Air Humidity Ratio {kg-H2O/kg-air}
  ,                                       !- Zone Heating Sizing Factor
  ,                                       !- Zone Cooling Sizing Factor
  DesignDay,                              !- Cooling Design Air Flow Method
  ,                                       !- Cooling Design Air Flow Rate {m3/s}
  ,                                       !- Cooling Minimum Air Flow per Zone Floor Area {m3/s-m2}
  ,                                       !- Cooling Minimum Air Flow {m3/s}
  ,                                       !- Cooling Minimum Air Flow Fraction
  DesignDay,                              !- Heating Design Air Flow Method
  ,                                       !- Heating Design Air Flow Rate {m3/s}
  ,                                       !- Heating Maximum Air Flow per Zone Floor Area {m3/s-m2}
  ,                                       !- Heating Maximum Air Flow {m3/s}
  ,                                       !- Heating Maximum Air Flow Fraction
  No,                                     !- Account for Dedicated Outdoor Air System
  NeutralSupplyAir,                       !- Dedicated Outdoor Air System Control Strategy
  autosize,                               !- Dedicated Outdoor Air Low Setpoint Temperature for Design {C}
  autosize;                               !- Dedicated Outdoor Air High Setpoint Temperature for Design {C}

OS:ZoneHVAC:EquipmentList,
  {cd9cbb4b-45e4-4503-8e65-1cde93106c77}, !- Handle
  Zone HVAC Equipment List 1,             !- Name
  {dcda2c53-5395-4f09-aa9c-079b708d9c30}; !- Thermal Zone

OS:Space,
  {20ae0247-e0d8-451e-b79b-19daae8ac68c}, !- Handle
  living space,                           !- Name
  {ece75072-482b-4af3-b63d-1a72dc8b1c8e}, !- Space Type Name
  ,                                       !- Default Construction Set Name
  ,                                       !- Default Schedule Set Name
  ,                                       !- Direction of Relative North {deg}
  ,                                       !- X Origin {m}
  ,                                       !- Y Origin {m}
  ,                                       !- Z Origin {m}
  ,                                       !- Building Story Name
  {dcda2c53-5395-4f09-aa9c-079b708d9c30}, !- Thermal Zone Name
  ,                                       !- Part of Total Floor Area
  ,                                       !- Design Specification Outdoor Air Object Name
  {e1f5bc88-d6de-4be0-85e9-a85875c0de26}; !- Building Unit Name

OS:Surface,
  {eef7fb57-8965-47b1-87c5-1369dcbc8d92}, !- Handle
  Surface 1,                              !- Name
  Floor,                                  !- Surface Type
  ,                                       !- Construction Name
  {20ae0247-e0d8-451e-b79b-19daae8ac68c}, !- Space Name
  Foundation,                             !- Outside Boundary Condition
  ,                                       !- Outside Boundary Condition Object
  NoSun,                                  !- Sun Exposure
  NoWind,                                 !- Wind Exposure
  ,                                       !- View Factor to Ground
  ,                                       !- Number of Vertices
  0, -9.144, 0,                           !- X,Y,Z Vertex 1 {m}
  0, 0, 0,                                !- X,Y,Z Vertex 2 {m}
  4.572, 0, 0,                            !- X,Y,Z Vertex 3 {m}
  4.572, -9.144, 0;                       !- X,Y,Z Vertex 4 {m}

OS:Surface,
  {23d1bbe9-b4d1-4b96-8e36-a7e5ce0f9669}, !- Handle
  Surface 2,                              !- Name
  Wall,                                   !- Surface Type
  ,                                       !- Construction Name
  {20ae0247-e0d8-451e-b79b-19daae8ac68c}, !- Space Name
  Outdoors,                               !- Outside Boundary Condition
  ,                                       !- Outside Boundary Condition Object
  SunExposed,                             !- Sun Exposure
  WindExposed,                            !- Wind Exposure
  ,                                       !- View Factor to Ground
  ,                                       !- Number of Vertices
  0, 0, 2.4384,                           !- X,Y,Z Vertex 1 {m}
  0, 0, 0,                                !- X,Y,Z Vertex 2 {m}
  0, -9.144, 0,                           !- X,Y,Z Vertex 3 {m}
  0, -9.144, 2.4384;                      !- X,Y,Z Vertex 4 {m}

OS:Surface,
  {bd609177-7cac-40d2-8aff-ea08e4667434}, !- Handle
  Surface 3,                              !- Name
  Wall,                                   !- Surface Type
  ,                                       !- Construction Name
  {20ae0247-e0d8-451e-b79b-19daae8ac68c}, !- Space Name
  Surface,                                !- Outside Boundary Condition
  {a425d74b-f88b-449e-a129-48d08c0557cd}, !- Outside Boundary Condition Object
  NoSun,                                  !- Sun Exposure
  NoWind,                                 !- Wind Exposure
  ,                                       !- View Factor to Ground
  ,                                       !- Number of Vertices
  4.572, 0, 2.4384,                       !- X,Y,Z Vertex 1 {m}
  4.572, 0, 0,                            !- X,Y,Z Vertex 2 {m}
  0, 0, 0,                                !- X,Y,Z Vertex 3 {m}
  0, 0, 2.4384;                           !- X,Y,Z Vertex 4 {m}

OS:Surface,
  {880fb190-38e8-4df2-ac49-d39e4cab6179}, !- Handle
  Surface 4,                              !- Name
  Wall,                                   !- Surface Type
  ,                                       !- Construction Name
  {20ae0247-e0d8-451e-b79b-19daae8ac68c}, !- Space Name
  Surface,                                !- Outside Boundary Condition
  {ceacd9db-07f8-47f5-a740-5c1b0f8b67dd}, !- Outside Boundary Condition Object
  NoSun,                                  !- Sun Exposure
  NoWind,                                 !- Wind Exposure
  ,                                       !- View Factor to Ground
  ,                                       !- Number of Vertices
  4.572, -9.144, 2.4384,                  !- X,Y,Z Vertex 1 {m}
  4.572, -9.144, 0,                       !- X,Y,Z Vertex 2 {m}
  4.572, 0, 0,                            !- X,Y,Z Vertex 3 {m}
  4.572, 0, 2.4384;                       !- X,Y,Z Vertex 4 {m}

OS:Surface,
  {f513a3f8-ebbd-4660-b71a-532567fba4c1}, !- Handle
  Surface 5,                              !- Name
  Wall,                                   !- Surface Type
  ,                                       !- Construction Name
  {20ae0247-e0d8-451e-b79b-19daae8ac68c}, !- Space Name
  Outdoors,                               !- Outside Boundary Condition
  ,                                       !- Outside Boundary Condition Object
  SunExposed,                             !- Sun Exposure
  WindExposed,                            !- Wind Exposure
  ,                                       !- View Factor to Ground
  ,                                       !- Number of Vertices
  0, -9.144, 2.4384,                      !- X,Y,Z Vertex 1 {m}
  0, -9.144, 0,                           !- X,Y,Z Vertex 2 {m}
  4.572, -9.144, 0,                       !- X,Y,Z Vertex 3 {m}
  4.572, -9.144, 2.4384;                  !- X,Y,Z Vertex 4 {m}

OS:Surface,
  {213aa288-6a55-4b57-95e6-3f14478d01cb}, !- Handle
  Surface 6,                              !- Name
  RoofCeiling,                            !- Surface Type
  ,                                       !- Construction Name
  {20ae0247-e0d8-451e-b79b-19daae8ac68c}, !- Space Name
  Surface,                                !- Outside Boundary Condition
  {bb342535-c649-46db-b289-0fb55237a762}, !- Outside Boundary Condition Object
  NoSun,                                  !- Sun Exposure
  NoWind,                                 !- Wind Exposure
  ,                                       !- View Factor to Ground
  ,                                       !- Number of Vertices
  4.572, -9.144, 2.4384,                  !- X,Y,Z Vertex 1 {m}
  4.572, 0, 2.4384,                       !- X,Y,Z Vertex 2 {m}
  0, 0, 2.4384,                           !- X,Y,Z Vertex 3 {m}
  0, -9.144, 2.4384;                      !- X,Y,Z Vertex 4 {m}

OS:SpaceType,
  {ece75072-482b-4af3-b63d-1a72dc8b1c8e}, !- Handle
  Space Type 1,                           !- Name
  ,                                       !- Default Construction Set Name
  ,                                       !- Default Schedule Set Name
  ,                                       !- Group Rendering Name
  ,                                       !- Design Specification Outdoor Air Object Name
  ,                                       !- Standards Template
  ,                                       !- Standards Building Type
  living;                                 !- Standards Space Type

OS:Space,
  {eceb7fa1-8965-475d-804e-5a4ef8bb6d44}, !- Handle
  living space|story 2,                   !- Name
  {ece75072-482b-4af3-b63d-1a72dc8b1c8e}, !- Space Type Name
  ,                                       !- Default Construction Set Name
  ,                                       !- Default Schedule Set Name
  -0,                                     !- Direction of Relative North {deg}
  0,                                      !- X Origin {m}
  0,                                      !- Y Origin {m}
  2.4384,                                 !- Z Origin {m}
  ,                                       !- Building Story Name
  {dcda2c53-5395-4f09-aa9c-079b708d9c30}, !- Thermal Zone Name
  ,                                       !- Part of Total Floor Area
  ,                                       !- Design Specification Outdoor Air Object Name
  {e1f5bc88-d6de-4be0-85e9-a85875c0de26}; !- Building Unit Name

OS:Surface,
  {2703fba8-90bc-4674-961c-5f169637fabc}, !- Handle
  Surface 7,                              !- Name
  Wall,                                   !- Surface Type
  ,                                       !- Construction Name
  {eceb7fa1-8965-475d-804e-5a4ef8bb6d44}, !- Space Name
  Surface,                                !- Outside Boundary Condition
  {1a3a15e8-f7d9-4c53-b40b-a12f22ba296a}, !- Outside Boundary Condition Object
  NoSun,                                  !- Sun Exposure
  NoWind,                                 !- Wind Exposure
  ,                                       !- View Factor to Ground
  ,                                       !- Number of Vertices
  4.572, 0, 2.4384,                       !- X,Y,Z Vertex 1 {m}
  4.572, 0, 0,                            !- X,Y,Z Vertex 2 {m}
  0, 0, 0,                                !- X,Y,Z Vertex 3 {m}
  0, 0, 2.4384;                           !- X,Y,Z Vertex 4 {m}

OS:Surface,
  {e300b938-c158-4b65-a338-2c28943e2951}, !- Handle
  Surface 8,                              !- Name
  Wall,                                   !- Surface Type
  ,                                       !- Construction Name
  {eceb7fa1-8965-475d-804e-5a4ef8bb6d44}, !- Space Name
  Outdoors,                               !- Outside Boundary Condition
  ,                                       !- Outside Boundary Condition Object
  SunExposed,                             !- Sun Exposure
  WindExposed,                            !- Wind Exposure
  ,                                       !- View Factor to Ground
  ,                                       !- Number of Vertices
  0, -9.144, 2.4384,                      !- X,Y,Z Vertex 1 {m}
  0, -9.144, 0,                           !- X,Y,Z Vertex 2 {m}
  4.572, -9.144, 0,                       !- X,Y,Z Vertex 3 {m}
  4.572, -9.144, 2.4384;                  !- X,Y,Z Vertex 4 {m}

OS:Surface,
  {35d20add-c3c4-4455-8975-8c876903814f}, !- Handle
  Surface 9,                              !- Name
  Wall,                                   !- Surface Type
  ,                                       !- Construction Name
  {eceb7fa1-8965-475d-804e-5a4ef8bb6d44}, !- Space Name
  Surface,                                !- Outside Boundary Condition
  {55af092d-9e26-4f54-95ac-52a6b36c182e}, !- Outside Boundary Condition Object
  NoSun,                                  !- Sun Exposure
  NoWind,                                 !- Wind Exposure
  ,                                       !- View Factor to Ground
  ,                                       !- Number of Vertices
  4.572, -9.144, 2.4384,                  !- X,Y,Z Vertex 1 {m}
  4.572, -9.144, 0,                       !- X,Y,Z Vertex 2 {m}
  4.572, 0, 0,                            !- X,Y,Z Vertex 3 {m}
  4.572, 0, 2.4384;                       !- X,Y,Z Vertex 4 {m}

OS:Surface,
  {bb342535-c649-46db-b289-0fb55237a762}, !- Handle
  Surface 10,                             !- Name
  Floor,                                  !- Surface Type
  ,                                       !- Construction Name
  {eceb7fa1-8965-475d-804e-5a4ef8bb6d44}, !- Space Name
  Surface,                                !- Outside Boundary Condition
  {213aa288-6a55-4b57-95e6-3f14478d01cb}, !- Outside Boundary Condition Object
  NoSun,                                  !- Sun Exposure
  NoWind,                                 !- Wind Exposure
  ,                                       !- View Factor to Ground
  ,                                       !- Number of Vertices
  0, -9.144, 0,                           !- X,Y,Z Vertex 1 {m}
  0, 0, 0,                                !- X,Y,Z Vertex 2 {m}
  4.572, 0, 0,                            !- X,Y,Z Vertex 3 {m}
  4.572, -9.144, 0;                       !- X,Y,Z Vertex 4 {m}

OS:Surface,
  {1a20f21a-bae7-41cd-94e6-b743634adb6d}, !- Handle
  Surface 11,                             !- Name
  Wall,                                   !- Surface Type
  ,                                       !- Construction Name
  {eceb7fa1-8965-475d-804e-5a4ef8bb6d44}, !- Space Name
  Outdoors,                               !- Outside Boundary Condition
  ,                                       !- Outside Boundary Condition Object
  SunExposed,                             !- Sun Exposure
  WindExposed,                            !- Wind Exposure
  ,                                       !- View Factor to Ground
  ,                                       !- Number of Vertices
  0, 0, 2.4384,                           !- X,Y,Z Vertex 1 {m}
  0, 0, 0,                                !- X,Y,Z Vertex 2 {m}
  0, -9.144, 0,                           !- X,Y,Z Vertex 3 {m}
  0, -9.144, 2.4384;                      !- X,Y,Z Vertex 4 {m}

OS:Surface,
  {67a57858-9705-42ca-a47b-1f4818e9dd50}, !- Handle
  Surface 12,                             !- Name
  RoofCeiling,                            !- Surface Type
  ,                                       !- Construction Name
  {eceb7fa1-8965-475d-804e-5a4ef8bb6d44}, !- Space Name
  Surface,                                !- Outside Boundary Condition
  {58e8ed04-1c21-4951-9d45-f04ae33a2630}, !- Outside Boundary Condition Object
  NoSun,                                  !- Sun Exposure
  NoWind,                                 !- Wind Exposure
  ,                                       !- View Factor to Ground
  ,                                       !- Number of Vertices
  4.572, -9.144, 2.4384,                  !- X,Y,Z Vertex 1 {m}
  4.572, 0, 2.4384,                       !- X,Y,Z Vertex 2 {m}
  0, 0, 2.4384,                           !- X,Y,Z Vertex 3 {m}
  0, -9.144, 2.4384;                      !- X,Y,Z Vertex 4 {m}

OS:ThermalZone,
  {8d759817-e105-42a0-babb-dacc6b202ced}, !- Handle
  living zone|unit 2,                     !- Name
  ,                                       !- Multiplier
  ,                                       !- Ceiling Height {m}
  ,                                       !- Volume {m3}
  ,                                       !- Floor Area {m2}
  ,                                       !- Zone Inside Convection Algorithm
  ,                                       !- Zone Outside Convection Algorithm
  ,                                       !- Zone Conditioning Equipment List Name
  {da453f41-132c-48d6-9239-e009f1cc4a10}, !- Zone Air Inlet Port List
  {3b277475-bf5f-4754-b344-05114d5d8101}, !- Zone Air Exhaust Port List
  {f551f28b-85ec-420c-9a51-c93be15946db}, !- Zone Air Node Name
  {21951df4-adcc-4ae8-a35d-e7a757a1f09d}, !- Zone Return Air Port List
  ,                                       !- Primary Daylighting Control Name
  ,                                       !- Fraction of Zone Controlled by Primary Daylighting Control
  ,                                       !- Secondary Daylighting Control Name
  ,                                       !- Fraction of Zone Controlled by Secondary Daylighting Control
  ,                                       !- Illuminance Map Name
  ,                                       !- Group Rendering Name
  ,                                       !- Thermostat Name
  No;                                     !- Use Ideal Air Loads

OS:Node,
  {b1f35c0e-5316-4689-a558-ae0de74b0046}, !- Handle
  Node 2,                                 !- Name
  {f551f28b-85ec-420c-9a51-c93be15946db}, !- Inlet Port
  ;                                       !- Outlet Port

OS:Connection,
  {f551f28b-85ec-420c-9a51-c93be15946db}, !- Handle
  {ba95321d-48f5-4382-a26e-3bcbd6a40327}, !- Name
  {8d759817-e105-42a0-babb-dacc6b202ced}, !- Source Object
  11,                                     !- Outlet Port
  {b1f35c0e-5316-4689-a558-ae0de74b0046}, !- Target Object
  2;                                      !- Inlet Port

OS:PortList,
  {da453f41-132c-48d6-9239-e009f1cc4a10}, !- Handle
  {8934bf5f-2e30-45bc-a5c6-96268a7fa578}, !- Name
  {8d759817-e105-42a0-babb-dacc6b202ced}; !- HVAC Component

OS:PortList,
  {3b277475-bf5f-4754-b344-05114d5d8101}, !- Handle
  {0c664e40-742b-4950-a021-ffe33343d281}, !- Name
  {8d759817-e105-42a0-babb-dacc6b202ced}; !- HVAC Component

OS:PortList,
  {21951df4-adcc-4ae8-a35d-e7a757a1f09d}, !- Handle
  {3134ed7a-162d-415c-9674-95bd1e311175}, !- Name
  {8d759817-e105-42a0-babb-dacc6b202ced}; !- HVAC Component

OS:Sizing:Zone,
  {2e1560d3-4b66-41d5-84d5-d5f45c7570fc}, !- Handle
  {8d759817-e105-42a0-babb-dacc6b202ced}, !- Zone or ZoneList Name
  SupplyAirTemperature,                   !- Zone Cooling Design Supply Air Temperature Input Method
  14,                                     !- Zone Cooling Design Supply Air Temperature {C}
  11.11,                                  !- Zone Cooling Design Supply Air Temperature Difference {deltaC}
  SupplyAirTemperature,                   !- Zone Heating Design Supply Air Temperature Input Method
  40,                                     !- Zone Heating Design Supply Air Temperature {C}
  11.11,                                  !- Zone Heating Design Supply Air Temperature Difference {deltaC}
  0.0085,                                 !- Zone Cooling Design Supply Air Humidity Ratio {kg-H2O/kg-air}
  0.008,                                  !- Zone Heating Design Supply Air Humidity Ratio {kg-H2O/kg-air}
  ,                                       !- Zone Heating Sizing Factor
  ,                                       !- Zone Cooling Sizing Factor
  DesignDay,                              !- Cooling Design Air Flow Method
  ,                                       !- Cooling Design Air Flow Rate {m3/s}
  ,                                       !- Cooling Minimum Air Flow per Zone Floor Area {m3/s-m2}
  ,                                       !- Cooling Minimum Air Flow {m3/s}
  ,                                       !- Cooling Minimum Air Flow Fraction
  DesignDay,                              !- Heating Design Air Flow Method
  ,                                       !- Heating Design Air Flow Rate {m3/s}
  ,                                       !- Heating Maximum Air Flow per Zone Floor Area {m3/s-m2}
  ,                                       !- Heating Maximum Air Flow {m3/s}
  ,                                       !- Heating Maximum Air Flow Fraction
  No,                                     !- Account for Dedicated Outdoor Air System
  NeutralSupplyAir,                       !- Dedicated Outdoor Air System Control Strategy
  autosize,                               !- Dedicated Outdoor Air Low Setpoint Temperature for Design {C}
  autosize;                               !- Dedicated Outdoor Air High Setpoint Temperature for Design {C}

OS:ZoneHVAC:EquipmentList,
  {9a1fe38c-9e4d-4620-ac8f-dbd7f767b84a}, !- Handle
  Zone HVAC Equipment List 2,             !- Name
  {8d759817-e105-42a0-babb-dacc6b202ced}; !- Thermal Zone

OS:Space,
  {ec7f3b98-8605-41dc-8f64-b639f9b479b9}, !- Handle
  living space|unit 2,                    !- Name
  {ece75072-482b-4af3-b63d-1a72dc8b1c8e}, !- Space Type Name
  ,                                       !- Default Construction Set Name
  ,                                       !- Default Schedule Set Name
  ,                                       !- Direction of Relative North {deg}
  ,                                       !- X Origin {m}
  ,                                       !- Y Origin {m}
  ,                                       !- Z Origin {m}
  ,                                       !- Building Story Name
  {8d759817-e105-42a0-babb-dacc6b202ced}, !- Thermal Zone Name
  ,                                       !- Part of Total Floor Area
  ,                                       !- Design Specification Outdoor Air Object Name
  {bd757310-435f-49de-a940-ce3bab2a94ad}; !- Building Unit Name

OS:Surface,
  {2026d92b-30b4-4dee-9b98-07ab778e8e3b}, !- Handle
  Surface 18,                             !- Name
  Floor,                                  !- Surface Type
  ,                                       !- Construction Name
  {ec7f3b98-8605-41dc-8f64-b639f9b479b9}, !- Space Name
  Foundation,                             !- Outside Boundary Condition
  ,                                       !- Outside Boundary Condition Object
  NoSun,                                  !- Sun Exposure
  NoWind,                                 !- Wind Exposure
  ,                                       !- View Factor to Ground
  ,                                       !- Number of Vertices
  0, 0, 0,                                !- X,Y,Z Vertex 1 {m}
  0, 9.144, 0,                            !- X,Y,Z Vertex 2 {m}
  4.572, 9.144, 0,                        !- X,Y,Z Vertex 3 {m}
  4.572, 0, 0;                            !- X,Y,Z Vertex 4 {m}

OS:Surface,
  {da190577-f77f-486a-94d3-48f7b137ed5c}, !- Handle
  Surface 19,                             !- Name
  Wall,                                   !- Surface Type
  ,                                       !- Construction Name
  {ec7f3b98-8605-41dc-8f64-b639f9b479b9}, !- Space Name
  Outdoors,                               !- Outside Boundary Condition
  ,                                       !- Outside Boundary Condition Object
  SunExposed,                             !- Sun Exposure
  WindExposed,                            !- Wind Exposure
  ,                                       !- View Factor to Ground
  ,                                       !- Number of Vertices