!- NOTE: Auto-generated from /test/osw_files/SFA_4units_1story_SL_FA.osw

OS:Version,
  {4f51228a-7304-44e9-ad22-0027ce7a32a2}, !- Handle
  2.9.0;                                  !- Version Identifier

OS:SimulationControl,
  {1a5fefeb-aafd-444e-a98b-b55781e20dad}, !- Handle
  ,                                       !- Do Zone Sizing Calculation
  ,                                       !- Do System Sizing Calculation
  ,                                       !- Do Plant Sizing Calculation
  No;                                     !- Run Simulation for Sizing Periods

OS:Timestep,
  {21a8c7fd-9937-4f80-ab49-faa14fa70c7c}, !- Handle
  6;                                      !- Number of Timesteps per Hour

OS:ShadowCalculation,
  {bc5a7f7d-9220-41fe-b6c0-4d7f30af0f2a}, !- Handle
  20,                                     !- Calculation Frequency
  200;                                    !- Maximum Figures in Shadow Overlap Calculations

OS:SurfaceConvectionAlgorithm:Outside,
  {8326ccbd-86e1-4219-ad18-3a1f9f057153}, !- Handle
  DOE-2;                                  !- Algorithm

OS:SurfaceConvectionAlgorithm:Inside,
  {9cff89c9-d9fb-4be8-9119-fb38173dbe75}, !- Handle
  TARP;                                   !- Algorithm

OS:ZoneCapacitanceMultiplier:ResearchSpecial,
  {14bd47cd-c508-4434-86ac-3d9988dad8a8}, !- Handle
  ,                                       !- Temperature Capacity Multiplier
  15,                                     !- Humidity Capacity Multiplier
  ;                                       !- Carbon Dioxide Capacity Multiplier

OS:RunPeriod,
  {f05cffae-c2a3-4b24-b3e3-e30d21b30490}, !- Handle
  Run Period 1,                           !- Name
  1,                                      !- Begin Month
  1,                                      !- Begin Day of Month
  12,                                     !- End Month
  31,                                     !- End Day of Month
  ,                                       !- Use Weather File Holidays and Special Days
  ,                                       !- Use Weather File Daylight Saving Period
  ,                                       !- Apply Weekend Holiday Rule
  ,                                       !- Use Weather File Rain Indicators
  ,                                       !- Use Weather File Snow Indicators
  ;                                       !- Number of Times Runperiod to be Repeated

OS:YearDescription,
  {70561443-1848-41d7-8a41-75ce14cf7058}, !- Handle
  2007,                                   !- Calendar Year
  ,                                       !- Day of Week for Start Day
  ;                                       !- Is Leap Year

OS:Building,
  {ded2aad7-52bb-47ca-b623-e74077571b3f}, !- Handle
  Building 1,                             !- Name
  ,                                       !- Building Sector Type
  0,                                      !- North Axis {deg}
  ,                                       !- Nominal Floor to Floor Height {m}
  ,                                       !- Space Type Name
  ,                                       !- Default Construction Set Name
  ,                                       !- Default Schedule Set Name
  2,                                      !- Standards Number of Stories
  2,                                      !- Standards Number of Above Ground Stories
  ,                                       !- Standards Template
  singlefamilyattached,                   !- Standards Building Type
  4;                                      !- Standards Number of Living Units

OS:AdditionalProperties,
  {02de5552-76f8-425d-9cc0-02b2edafb9ff}, !- Handle
  {ded2aad7-52bb-47ca-b623-e74077571b3f}, !- Object Name
  num_units,                              !- Feature Name 1
  Integer,                                !- Feature Data Type 1
  4,                                      !- Feature Value 1
  has_rear_units,                         !- Feature Name 2
  Boolean,                                !- Feature Data Type 2
  false,                                  !- Feature Value 2
  horz_location,                          !- Feature Name 3
  String,                                 !- Feature Data Type 3
  Left,                                   !- Feature Value 3
  num_floors,                             !- Feature Name 4
  Integer,                                !- Feature Data Type 4
  1;                                      !- Feature Value 4

OS:ThermalZone,
  {ecab59b5-50a8-4d26-9522-fb3b7031e1c8}, !- Handle
  living zone,                            !- Name
  ,                                       !- Multiplier
  ,                                       !- Ceiling Height {m}
  ,                                       !- Volume {m3}
  ,                                       !- Floor Area {m2}
  ,                                       !- Zone Inside Convection Algorithm
  ,                                       !- Zone Outside Convection Algorithm
  ,                                       !- Zone Conditioning Equipment List Name
  {7c0f054e-064a-4527-8947-89bd2489ba94}, !- Zone Air Inlet Port List
  {ed93d001-8285-4940-85f5-742dc68dce9e}, !- Zone Air Exhaust Port List
  {11446ef8-e0f7-43e4-a39c-78dfb7c40066}, !- Zone Air Node Name
  {0ac25113-a4e9-48c8-bce2-4e3f9e7855c1}, !- Zone Return Air Port List
  ,                                       !- Primary Daylighting Control Name
  ,                                       !- Fraction of Zone Controlled by Primary Daylighting Control
  ,                                       !- Secondary Daylighting Control Name
  ,                                       !- Fraction of Zone Controlled by Secondary Daylighting Control
  ,                                       !- Illuminance Map Name
  ,                                       !- Group Rendering Name
  ,                                       !- Thermostat Name
  No;                                     !- Use Ideal Air Loads

OS:Node,
  {f801a822-f73d-466a-baf1-fd9737a0f6b6}, !- Handle
  Node 1,                                 !- Name
  {11446ef8-e0f7-43e4-a39c-78dfb7c40066}, !- Inlet Port
  ;                                       !- Outlet Port

OS:Connection,
  {11446ef8-e0f7-43e4-a39c-78dfb7c40066}, !- Handle
  {77197159-6037-4e3f-8743-d6c5ca69711f}, !- Name
  {ecab59b5-50a8-4d26-9522-fb3b7031e1c8}, !- Source Object
  11,                                     !- Outlet Port
  {f801a822-f73d-466a-baf1-fd9737a0f6b6}, !- Target Object
  2;                                      !- Inlet Port

OS:PortList,
  {7c0f054e-064a-4527-8947-89bd2489ba94}, !- Handle
  {f1769219-d429-4583-8c5f-e4653ce70376}, !- Name
  {ecab59b5-50a8-4d26-9522-fb3b7031e1c8}; !- HVAC Component

OS:PortList,
  {ed93d001-8285-4940-85f5-742dc68dce9e}, !- Handle
  {fc834898-d4a0-487e-a429-f3ac8d8d6941}, !- Name
  {ecab59b5-50a8-4d26-9522-fb3b7031e1c8}; !- HVAC Component

OS:PortList,
  {0ac25113-a4e9-48c8-bce2-4e3f9e7855c1}, !- Handle
  {c81f33c9-29a7-44f2-b02e-de09606fbbdc}, !- Name
  {ecab59b5-50a8-4d26-9522-fb3b7031e1c8}; !- HVAC Component

OS:Sizing:Zone,
  {cf248517-3e21-490b-8f54-d0a511f39dd1}, !- Handle
  {ecab59b5-50a8-4d26-9522-fb3b7031e1c8}, !- Zone or ZoneList Name
  SupplyAirTemperature,                   !- Zone Cooling Design Supply Air Temperature Input Method
  14,                                     !- Zone Cooling Design Supply Air Temperature {C}
  11.11,                                  !- Zone Cooling Design Supply Air Temperature Difference {deltaC}
  SupplyAirTemperature,                   !- Zone Heating Design Supply Air Temperature Input Method
  40,                                     !- Zone Heating Design Supply Air Temperature {C}
  11.11,                                  !- Zone Heating Design Supply Air Temperature Difference {deltaC}
  0.0085,                                 !- Zone Cooling Design Supply Air Humidity Ratio {kg-H2O/kg-air}
  0.008,                                  !- Zone Heating Design Supply Air Humidity Ratio {kg-H2O/kg-air}
  ,                                       !- Zone Heating Sizing Factor
  ,                                       !- Zone Cooling Sizing Factor
  DesignDay,                              !- Cooling Design Air Flow Method
  ,                                       !- Cooling Design Air Flow Rate {m3/s}
  ,                                       !- Cooling Minimum Air Flow per Zone Floor Area {m3/s-m2}
  ,                                       !- Cooling Minimum Air Flow {m3/s}
  ,                                       !- Cooling Minimum Air Flow Fraction
  DesignDay,                              !- Heating Design Air Flow Method
  ,                                       !- Heating Design Air Flow Rate {m3/s}
  ,                                       !- Heating Maximum Air Flow per Zone Floor Area {m3/s-m2}
  ,                                       !- Heating Maximum Air Flow {m3/s}
  ,                                       !- Heating Maximum Air Flow Fraction
  ,                                       !- Design Zone Air Distribution Effectiveness in Cooling Mode
  ,                                       !- Design Zone Air Distribution Effectiveness in Heating Mode
  No,                                     !- Account for Dedicated Outdoor Air System
  NeutralSupplyAir,                       !- Dedicated Outdoor Air System Control Strategy
  autosize,                               !- Dedicated Outdoor Air Low Setpoint Temperature for Design {C}
  autosize;                               !- Dedicated Outdoor Air High Setpoint Temperature for Design {C}

OS:ZoneHVAC:EquipmentList,
  {9b7a57e5-9991-467f-9fff-bc6098619af5}, !- Handle
  Zone HVAC Equipment List 1,             !- Name
  {ecab59b5-50a8-4d26-9522-fb3b7031e1c8}; !- Thermal Zone

OS:Space,
  {7f51502f-68f1-4fd1-b006-708937269c07}, !- Handle
  living space,                           !- Name
  {c446eaa8-8890-48f3-825e-d84a0f074a58}, !- Space Type Name
  ,                                       !- Default Construction Set Name
  ,                                       !- Default Schedule Set Name
  ,                                       !- Direction of Relative North {deg}
  ,                                       !- X Origin {m}
  ,                                       !- Y Origin {m}
  ,                                       !- Z Origin {m}
  ,                                       !- Building Story Name
  {ecab59b5-50a8-4d26-9522-fb3b7031e1c8}, !- Thermal Zone Name
  ,                                       !- Part of Total Floor Area
  ,                                       !- Design Specification Outdoor Air Object Name
  {7fa0f4c1-4fdf-4a80-ba72-280940fefa3d}; !- Building Unit Name

OS:Surface,
  {35157e1c-7b88-4643-ae23-251d8689c697}, !- Handle
  Surface 1,                              !- Name
  Floor,                                  !- Surface Type
  ,                                       !- Construction Name
  {7f51502f-68f1-4fd1-b006-708937269c07}, !- Space Name
  Foundation,                             !- Outside Boundary Condition
  ,                                       !- Outside Boundary Condition Object
  NoSun,                                  !- Sun Exposure
  NoWind,                                 !- Wind Exposure
  ,                                       !- View Factor to Ground
  ,                                       !- Number of Vertices
  0, -9.144, 0,                           !- X,Y,Z Vertex 1 {m}
  0, 0, 0,                                !- X,Y,Z Vertex 2 {m}
  4.572, 0, 0,                            !- X,Y,Z Vertex 3 {m}
  4.572, -9.144, 0;                       !- X,Y,Z Vertex 4 {m}

OS:Surface,
  {6ceed243-a4b7-4180-99c4-37c8cba42456}, !- Handle
  Surface 2,                              !- Name
  Wall,                                   !- Surface Type
  ,                                       !- Construction Name
  {7f51502f-68f1-4fd1-b006-708937269c07}, !- Space Name
  Outdoors,                               !- Outside Boundary Condition
  ,                                       !- Outside Boundary Condition Object
  SunExposed,                             !- Sun Exposure
  WindExposed,                            !- Wind Exposure
  ,                                       !- View Factor to Ground
  ,                                       !- Number of Vertices
  0, 0, 2.4384,                           !- X,Y,Z Vertex 1 {m}
  0, 0, 0,                                !- X,Y,Z Vertex 2 {m}
  0, -9.144, 0,                           !- X,Y,Z Vertex 3 {m}
  0, -9.144, 2.4384;                      !- X,Y,Z Vertex 4 {m}

OS:Surface,
  {89853d20-b6fb-4215-911d-d8782286a379}, !- Handle
  Surface 3,                              !- Name
  Wall,                                   !- Surface Type
  ,                                       !- Construction Name
  {7f51502f-68f1-4fd1-b006-708937269c07}, !- Space Name
  Outdoors,                               !- Outside Boundary Condition
  ,                                       !- Outside Boundary Condition Object
  SunExposed,                             !- Sun Exposure
  WindExposed,                            !- Wind Exposure
  ,                                       !- View Factor to Ground
  ,                                       !- Number of Vertices
  4.572, 0, 2.4384,                       !- X,Y,Z Vertex 1 {m}
  4.572, 0, 0,                            !- X,Y,Z Vertex 2 {m}
  0, 0, 0,                                !- X,Y,Z Vertex 3 {m}
  0, 0, 2.4384;                           !- X,Y,Z Vertex 4 {m}

OS:Surface,
  {324981a1-3255-4820-8ca2-59044fd43c4f}, !- Handle
  Surface 4,                              !- Name
  Wall,                                   !- Surface Type
  ,                                       !- Construction Name
  {7f51502f-68f1-4fd1-b006-708937269c07}, !- Space Name
  Adiabatic,                              !- Outside Boundary Condition
  ,                                       !- Outside Boundary Condition Object
  NoSun,                                  !- Sun Exposure
  NoWind,                                 !- Wind Exposure
  ,                                       !- View Factor to Ground
  ,                                       !- Number of Vertices
  4.572, -9.144, 2.4384,                  !- X,Y,Z Vertex 1 {m}
  4.572, -9.144, 0,                       !- X,Y,Z Vertex 2 {m}
  4.572, 0, 0,                            !- X,Y,Z Vertex 3 {m}
  4.572, 0, 2.4384;                       !- X,Y,Z Vertex 4 {m}

OS:Surface,
  {b94354cf-c4fc-40f2-b5d1-520b88a7b00f}, !- Handle
  Surface 5,                              !- Name
  Wall,                                   !- Surface Type
  ,                                       !- Construction Name
  {7f51502f-68f1-4fd1-b006-708937269c07}, !- Space Name
  Outdoors,                               !- Outside Boundary Condition
  ,                                       !- Outside Boundary Condition Object
  SunExposed,                             !- Sun Exposure
  WindExposed,                            !- Wind Exposure
  ,                                       !- View Factor to Ground
  ,                                       !- Number of Vertices
  0, -9.144, 2.4384,                      !- X,Y,Z Vertex 1 {m}
  0, -9.144, 0,                           !- X,Y,Z Vertex 2 {m}
  4.572, -9.144, 0,                       !- X,Y,Z Vertex 3 {m}
  4.572, -9.144, 2.4384;                  !- X,Y,Z Vertex 4 {m}

OS:Surface,
  {24f2c943-e381-42a1-bed0-a0140781db94}, !- Handle
  Surface 6,                              !- Name
  RoofCeiling,                            !- Surface Type
  ,                                       !- Construction Name
  {7f51502f-68f1-4fd1-b006-708937269c07}, !- Space Name
  Surface,                                !- Outside Boundary Condition
  {701edc89-8cdd-428f-9e52-fcf61ee01483}, !- Outside Boundary Condition Object
  NoSun,                                  !- Sun Exposure
  NoWind,                                 !- Wind Exposure
  ,                                       !- View Factor to Ground
  ,                                       !- Number of Vertices
  4.572, -9.144, 2.4384,                  !- X,Y,Z Vertex 1 {m}
  4.572, 0, 2.4384,                       !- X,Y,Z Vertex 2 {m}
  0, 0, 2.4384,                           !- X,Y,Z Vertex 3 {m}
  0, -9.144, 2.4384;                      !- X,Y,Z Vertex 4 {m}

OS:SpaceType,
  {c446eaa8-8890-48f3-825e-d84a0f074a58}, !- Handle
  Space Type 1,                           !- Name
  ,                                       !- Default Construction Set Name
  ,                                       !- Default Schedule Set Name
  ,                                       !- Group Rendering Name
  ,                                       !- Design Specification Outdoor Air Object Name
  ,                                       !- Standards Template
  ,                                       !- Standards Building Type
  living;                                 !- Standards Space Type

OS:Surface,
  {701edc89-8cdd-428f-9e52-fcf61ee01483}, !- Handle
  Surface 7,                              !- Name
  Floor,                                  !- Surface Type
  ,                                       !- Construction Name
  {a3ed9993-6080-4c5f-b880-507f3b20e7b3}, !- Space Name
  Surface,                                !- Outside Boundary Condition
  {24f2c943-e381-42a1-bed0-a0140781db94}, !- Outside Boundary Condition Object
  NoSun,                                  !- Sun Exposure
  NoWind,                                 !- Wind Exposure
  ,                                       !- View Factor to Ground
  ,                                       !- Number of Vertices
  0, -9.144, 2.4384,                      !- X,Y,Z Vertex 1 {m}
  0, 0, 2.4384,                           !- X,Y,Z Vertex 2 {m}
  4.572, 0, 2.4384,                       !- X,Y,Z Vertex 3 {m}
  4.572, -9.144, 2.4384;                  !- X,Y,Z Vertex 4 {m}

OS:Surface,
  {6aaf906e-4eee-4b49-b985-ac2d62703705}, !- Handle
  Surface 8,                              !- Name
  RoofCeiling,                            !- Surface Type
  ,                                       !- Construction Name
  {a3ed9993-6080-4c5f-b880-507f3b20e7b3}, !- Space Name
  Outdoors,                               !- Outside Boundary Condition
  ,                                       !- Outside Boundary Condition Object
  SunExposed,                             !- Sun Exposure
  WindExposed,                            !- Wind Exposure
  ,                                       !- View Factor to Ground
  ,                                       !- Number of Vertices
  0, -4.572, 4.7244,                      !- X,Y,Z Vertex 1 {m}
  4.572, -4.572, 4.7244,                  !- X,Y,Z Vertex 2 {m}
  4.572, 0, 2.4384,                       !- X,Y,Z Vertex 3 {m}
  0, 0, 2.4384;                           !- X,Y,Z Vertex 4 {m}

OS:Surface,
  {9bd51105-8263-471b-8430-6212a8570d34}, !- Handle
  Surface 9,                              !- Name
  RoofCeiling,                            !- Surface Type
  ,                                       !- Construction Name
  {a3ed9993-6080-4c5f-b880-507f3b20e7b3}, !- Space Name
  Outdoors,                               !- Outside Boundary Condition
  ,                                       !- Outside Boundary Condition Object
  SunExposed,                             !- Sun Exposure
  WindExposed,                            !- Wind Exposure
  ,                                       !- View Factor to Ground
  ,                                       !- Number of Vertices
  4.572, -4.572, 4.7244,                  !- X,Y,Z Vertex 1 {m}
  0, -4.572, 4.7244,                      !- X,Y,Z Vertex 2 {m}
  0, -9.144, 2.4384,                      !- X,Y,Z Vertex 3 {m}
  4.572, -9.144, 2.4384;                  !- X,Y,Z Vertex 4 {m}

OS:Surface,
  {58bae11f-7396-40e2-ad21-600e59999136}, !- Handle
  Surface 10,                             !- Name
  Wall,                                   !- Surface Type
  ,                                       !- Construction Name
  {a3ed9993-6080-4c5f-b880-507f3b20e7b3}, !- Space Name
  Outdoors,                               !- Outside Boundary Condition
  ,                                       !- Outside Boundary Condition Object
  SunExposed,                             !- Sun Exposure
  WindExposed,                            !- Wind Exposure
  ,                                       !- View Factor to Ground
  ,                                       !- Number of Vertices
  0, -4.572, 4.7244,                      !- X,Y,Z Vertex 1 {m}
  0, 0, 2.4384,                           !- X,Y,Z Vertex 2 {m}
  0, -9.144, 2.4384;                      !- X,Y,Z Vertex 3 {m}

OS:Surface,
  {bff656ad-aa50-4908-88de-79280fa9f823}, !- Handle
  Surface 11,                             !- Name
  Wall,                                   !- Surface Type
  ,                                       !- Construction Name
  {a3ed9993-6080-4c5f-b880-507f3b20e7b3}, !- Space Name
  Adiabatic,                              !- Outside Boundary Condition
  ,                                       !- Outside Boundary Condition Object
  NoSun,                                  !- Sun Exposure
  NoWind,                                 !- Wind Exposure
  ,                                       !- View Factor to Ground
  ,                                       !- Number of Vertices
  4.572, -4.572, 4.7244,                  !- X,Y,Z Vertex 1 {m}
  4.572, -9.144, 2.4384,                  !- X,Y,Z Vertex 2 {m}
  4.572, 0, 2.4384;                       !- X,Y,Z Vertex 3 {m}

OS:Space,
  {a3ed9993-6080-4c5f-b880-507f3b20e7b3}, !- Handle
  finished attic space,                   !- Name
  {c446eaa8-8890-48f3-825e-d84a0f074a58}, !- Space Type Name
  ,                                       !- Default Construction Set Name
  ,                                       !- Default Schedule Set Name
  ,                                       !- Direction of Relative North {deg}
  ,                                       !- X Origin {m}
  ,                                       !- Y Origin {m}
  ,                                       !- Z Origin {m}
  ,                                       !- Building Story Name
  {ecab59b5-50a8-4d26-9522-fb3b7031e1c8}, !- Thermal Zone Name
  ,                                       !- Part of Total Floor Area
  ,                                       !- Design Specification Outdoor Air Object Name
  {7fa0f4c1-4fdf-4a80-ba72-280940fefa3d}; !- Building Unit Name

OS:BuildingUnit,
  {7fa0f4c1-4fdf-4a80-ba72-280940fefa3d}, !- Handle
  unit 1,                                 !- Name
  ,                                       !- Rendering Color
  Residential;                            !- Building Unit Type

OS:AdditionalProperties,
  {f4a443e4-a916-4f8a-aef3-1956761e6e8a}, !- Handle
  {7fa0f4c1-4fdf-4a80-ba72-280940fefa3d}, !- Object Name
  NumberOfBedrooms,                       !- Feature Name 1
  Integer,                                !- Feature Data Type 1
  3,                                      !- Feature Value 1
  NumberOfBathrooms,                      !- Feature Name 2
  Double,                                 !- Feature Data Type 2
  2,                                      !- Feature Value 2
  NumberOfOccupants,                      !- Feature Name 3
  Double,                                 !- Feature Data Type 3
  3.3900000000000001;                     !- Feature Value 3

OS:External:File,
  {19dbce91-64f2-4e2b-8567-619a230c8559}, !- Handle
  8760.csv,                               !- Name
  8760.csv;                               !- File Name

OS:Schedule:Day,
  {f99a41a5-c3e4-4d31-8ac9-b00ebf3765e4}, !- Handle
  Schedule Day 1,                         !- Name
  ,                                       !- Schedule Type Limits Name
  ,                                       !- Interpolate to Timestep
  24,                                     !- Hour 1
  0,                                      !- Minute 1
  0;                                      !- Value Until Time 1

OS:Schedule:Day,
  {4d509120-8c40-40c1-95f4-316d057efadd}, !- Handle
  Schedule Day 2,                         !- Name
  ,                                       !- Schedule Type Limits Name
  ,                                       !- Interpolate to Timestep
  24,                                     !- Hour 1
  0,                                      !- Minute 1
  1;                                      !- Value Until Time 1

OS:Schedule:File,
  {996abcb8-c9f7-4da1-a2fc-e3ac3345d24d}, !- Handle
  occupants,                              !- Name
  {1a5c3ec5-d6ea-4f2b-8b07-4209d99b5416}, !- Schedule Type Limits Name
  {19dbce91-64f2-4e2b-8567-619a230c8559}, !- External File Name
  1,                                      !- Column Number
  1,                                      !- Rows to Skip at Top
  8760,                                   !- Number of Hours of Data
  ,                                       !- Column Separator
  ,                                       !- Interpolate to Timestep
  60;                                     !- Minutes per Item

OS:Schedule:Ruleset,
  {a6b44d05-4d1c-4e69-8536-8d729719164b}, !- Handle
  Schedule Ruleset 1,                     !- Name
  {adb039f9-1be4-43d2-b70f-4fd1a857cabf}, !- Schedule Type Limits Name
  {68c9bcf8-c386-44d6-b2c7-a5f68aafe0bc}; !- Default Day Schedule Name

OS:Schedule:Day,
  {68c9bcf8-c386-44d6-b2c7-a5f68aafe0bc}, !- Handle
  Schedule Day 3,                         !- Name
  {adb039f9-1be4-43d2-b70f-4fd1a857cabf}, !- Schedule Type Limits Name
  ,                                       !- Interpolate to Timestep
  24,                                     !- Hour 1
  0,                                      !- Minute 1
  112.539290946133;                       !- Value Until Time 1

OS:People:Definition,
  {63eca153-eff8-4648-910e-22daad348510}, !- Handle
  res occupants|finished attic space,     !- Name
  People,                                 !- Number of People Calculation Method
  1.695,                                  !- Number of People {people}
  ,                                       !- People per Space Floor Area {person/m2}
  ,                                       !- Space Floor Area per Person {m2/person}
  0.319734,                               !- Fraction Radiant
  0.573,                                  !- Sensible Heat Fraction
  0,                                      !- Carbon Dioxide Generation Rate {m3/s-W}
  No,                                     !- Enable ASHRAE 55 Comfort Warnings
  ZoneAveraged;                           !- Mean Radiant Temperature Calculation Type

OS:People,
  {3bee1ef9-4b75-41a2-ab0d-3e6006103e9f}, !- Handle
  res occupants|finished attic space,     !- Name
  {63eca153-eff8-4648-910e-22daad348510}, !- People Definition Name
  {a3ed9993-6080-4c5f-b880-507f3b20e7b3}, !- Space or SpaceType Name
  {996abcb8-c9f7-4da1-a2fc-e3ac3345d24d}, !- Number of People Schedule Name
  {a6b44d05-4d1c-4e69-8536-8d729719164b}, !- Activity Level Schedule Name
  ,                                       !- Surface Name/Angle Factor List Name
  ,                                       !- Work Efficiency Schedule Name
  ,                                       !- Clothing Insulation Schedule Name
  ,                                       !- Air Velocity Schedule Name
  1;                                      !- Multiplier

OS:ScheduleTypeLimits,
  {adb039f9-1be4-43d2-b70f-4fd1a857cabf}, !- Handle
  ActivityLevel,                          !- Name
  0,                                      !- Lower Limit Value
  ,                                       !- Upper Limit Value
  Continuous,                             !- Numeric Type
  ActivityLevel;                          !- Unit Type

OS:ScheduleTypeLimits,
  {1a5c3ec5-d6ea-4f2b-8b07-4209d99b5416}, !- Handle
  Fractional,                             !- Name
  0,                                      !- Lower Limit Value
  1,                                      !- Upper Limit Value
  Continuous;                             !- Numeric Type

OS:People:Definition,
  {4f5074d8-666b-4c0e-943e-fd52ea54e8c9}, !- Handle
  res occupants|living space,             !- Name
  People,                                 !- Number of People Calculation Method
  1.695,                                  !- Number of People {people}
  ,                                       !- People per Space Floor Area {person/m2}
  ,                                       !- Space Floor Area per Person {m2/person}
  0.319734,                               !- Fraction Radiant
  0.573,                                  !- Sensible Heat Fraction
  0,                                      !- Carbon Dioxide Generation Rate {m3/s-W}
  No,                                     !- Enable ASHRAE 55 Comfort Warnings
  ZoneAveraged;                           !- Mean Radiant Temperature Calculation Type

OS:People,
  {08916ea7-be50-41db-8e4f-13c8f94c3f51}, !- Handle
  res occupants|living space,             !- Name
  {4f5074d8-666b-4c0e-943e-fd52ea54e8c9}, !- People Definition Name
  {7f51502f-68f1-4fd1-b006-708937269c07}, !- Space or SpaceType Name
  {996abcb8-c9f7-4da1-a2fc-e3ac3345d24d}, !- Number of People Schedule Name
  {a6b44d05-4d1c-4e69-8536-8d729719164b}, !- Activity Level Schedule Name
  ,                                       !- Surface Name/Angle Factor List Name
  ,                                       !- Work Efficiency Schedule Name
  ,                                       !- Clothing Insulation Schedule Name
  ,                                       !- Air Velocity Schedule Name
  1;                                      !- Multiplier

