!- NOTE: Auto-generated from /test/osw_files/SFA_4units_1story_SL_UA_3Beds_2Baths_Denver_CentralAC.osw

OS:Version,
  {8c66403b-e5d2-42a6-98c2-06cb0e460fd3}, !- Handle
  2.8.1;                                  !- Version Identifier

OS:SimulationControl,
  {2c87f373-d46b-4498-b798-e5ca8782013b}, !- Handle
  ,                                       !- Do Zone Sizing Calculation
  ,                                       !- Do System Sizing Calculation
  ,                                       !- Do Plant Sizing Calculation
  No;                                     !- Run Simulation for Sizing Periods

OS:Timestep,
  {4edb8720-692f-4f0e-95f6-8a4ba1753143}, !- Handle
  6;                                      !- Number of Timesteps per Hour

OS:ShadowCalculation,
  {ec996467-0c12-497a-bcca-8c66cd2ead35}, !- Handle
  20,                                     !- Calculation Frequency
  200;                                    !- Maximum Figures in Shadow Overlap Calculations

OS:SurfaceConvectionAlgorithm:Outside,
  {12450631-d1e4-40f4-98ed-c235f62a8ae0}, !- Handle
  DOE-2;                                  !- Algorithm

OS:SurfaceConvectionAlgorithm:Inside,
  {108ebb4e-6b93-4616-b336-cd167a066fe9}, !- Handle
  TARP;                                   !- Algorithm

OS:ZoneCapacitanceMultiplier:ResearchSpecial,
  {47045732-3398-43f9-9a69-dfa60976a1c2}, !- Handle
  ,                                       !- Temperature Capacity Multiplier
  15,                                     !- Humidity Capacity Multiplier
  ;                                       !- Carbon Dioxide Capacity Multiplier

OS:RunPeriod,
  {2c1576d8-1333-4087-bedb-0c5841ad8763}, !- Handle
  Run Period 1,                           !- Name
  1,                                      !- Begin Month
  1,                                      !- Begin Day of Month
  12,                                     !- End Month
  31,                                     !- End Day of Month
  ,                                       !- Use Weather File Holidays and Special Days
  ,                                       !- Use Weather File Daylight Saving Period
  ,                                       !- Apply Weekend Holiday Rule
  ,                                       !- Use Weather File Rain Indicators
  ,                                       !- Use Weather File Snow Indicators
  ;                                       !- Number of Times Runperiod to be Repeated

OS:YearDescription,
  {7ad1cbfa-7036-46f6-a172-7c086576a701}, !- Handle
  2007,                                   !- Calendar Year
  ,                                       !- Day of Week for Start Day
  ;                                       !- Is Leap Year

OS:ThermalZone,
  {e314c6e1-6e67-48aa-b96a-7c1af6b83b2a}, !- Handle
  living zone,                            !- Name
  ,                                       !- Multiplier
  ,                                       !- Ceiling Height {m}
  ,                                       !- Volume {m3}
  ,                                       !- Floor Area {m2}
  ,                                       !- Zone Inside Convection Algorithm
  ,                                       !- Zone Outside Convection Algorithm
  ,                                       !- Zone Conditioning Equipment List Name
  {1592326e-9bef-4bdb-98d9-ad243dabc126}, !- Zone Air Inlet Port List
  {a8fa7b4d-f996-44ea-87a5-6ede9c24d39b}, !- Zone Air Exhaust Port List
  {3dedbc9f-5a14-4052-9929-baa466ddfa49}, !- Zone Air Node Name
  {e555a858-2682-46c1-b237-0789dc502c4c}, !- Zone Return Air Port List
  ,                                       !- Primary Daylighting Control Name
  ,                                       !- Fraction of Zone Controlled by Primary Daylighting Control
  ,                                       !- Secondary Daylighting Control Name
  ,                                       !- Fraction of Zone Controlled by Secondary Daylighting Control
  ,                                       !- Illuminance Map Name
  ,                                       !- Group Rendering Name
  {d57696b8-1ef7-4b8a-a0ef-c75243182373}, !- Thermostat Name
  No;                                     !- Use Ideal Air Loads

OS:Node,
  {2da1ecae-56aa-468b-9fd0-7e02fd6de6e8}, !- Handle
  Node 1,                                 !- Name
  {3dedbc9f-5a14-4052-9929-baa466ddfa49}, !- Inlet Port
  ;                                       !- Outlet Port

OS:Connection,
  {3dedbc9f-5a14-4052-9929-baa466ddfa49}, !- Handle
  {59f71695-ef78-455e-8acc-b5cc988e132b}, !- Name
  {e314c6e1-6e67-48aa-b96a-7c1af6b83b2a}, !- Source Object
  11,                                     !- Outlet Port
  {2da1ecae-56aa-468b-9fd0-7e02fd6de6e8}, !- Target Object
  2;                                      !- Inlet Port

OS:PortList,
  {1592326e-9bef-4bdb-98d9-ad243dabc126}, !- Handle
  {d9cce6c1-e6df-4812-a521-c9101b8c5630}, !- Name
  {e314c6e1-6e67-48aa-b96a-7c1af6b83b2a}, !- HVAC Component
  {e6b3050b-50b4-40f8-be32-4a7be4bb851d}; !- Port 1

OS:PortList,
  {a8fa7b4d-f996-44ea-87a5-6ede9c24d39b}, !- Handle
  {73b2ebe0-fdeb-43ef-8f72-7001638d31c5}, !- Name
  {e314c6e1-6e67-48aa-b96a-7c1af6b83b2a}; !- HVAC Component

OS:PortList,
  {e555a858-2682-46c1-b237-0789dc502c4c}, !- Handle
  {49fbd838-a074-4b24-b39d-a49cb9ffa704}, !- Name
  {e314c6e1-6e67-48aa-b96a-7c1af6b83b2a}, !- HVAC Component
  {fbffb91d-e4e7-4bc0-80c3-df14292c9f97}; !- Port 1

OS:Sizing:Zone,
  {1705a196-7d73-43f0-861a-4c8d454681ec}, !- Handle
  {e314c6e1-6e67-48aa-b96a-7c1af6b83b2a}, !- Zone or ZoneList Name
  SupplyAirTemperature,                   !- Zone Cooling Design Supply Air Temperature Input Method
  14,                                     !- Zone Cooling Design Supply Air Temperature {C}
  11.11,                                  !- Zone Cooling Design Supply Air Temperature Difference {deltaC}
  SupplyAirTemperature,                   !- Zone Heating Design Supply Air Temperature Input Method
  40,                                     !- Zone Heating Design Supply Air Temperature {C}
  11.11,                                  !- Zone Heating Design Supply Air Temperature Difference {deltaC}
  0.0085,                                 !- Zone Cooling Design Supply Air Humidity Ratio {kg-H2O/kg-air}
  0.008,                                  !- Zone Heating Design Supply Air Humidity Ratio {kg-H2O/kg-air}
  ,                                       !- Zone Heating Sizing Factor
  ,                                       !- Zone Cooling Sizing Factor
  DesignDay,                              !- Cooling Design Air Flow Method
  ,                                       !- Cooling Design Air Flow Rate {m3/s}
  ,                                       !- Cooling Minimum Air Flow per Zone Floor Area {m3/s-m2}
  ,                                       !- Cooling Minimum Air Flow {m3/s}
  ,                                       !- Cooling Minimum Air Flow Fraction
  DesignDay,                              !- Heating Design Air Flow Method
  ,                                       !- Heating Design Air Flow Rate {m3/s}
  ,                                       !- Heating Maximum Air Flow per Zone Floor Area {m3/s-m2}
  ,                                       !- Heating Maximum Air Flow {m3/s}
  ,                                       !- Heating Maximum Air Flow Fraction
  ,                                       !- Design Zone Air Distribution Effectiveness in Cooling Mode
  ,                                       !- Design Zone Air Distribution Effectiveness in Heating Mode
  No,                                     !- Account for Dedicated Outdoor Air System
  NeutralSupplyAir,                       !- Dedicated Outdoor Air System Control Strategy
  autosize,                               !- Dedicated Outdoor Air Low Setpoint Temperature for Design {C}
  autosize;                               !- Dedicated Outdoor Air High Setpoint Temperature for Design {C}

OS:ZoneHVAC:EquipmentList,
  {6eb90385-95cf-4452-80f9-6497c69d204f}, !- Handle
  Zone HVAC Equipment List 1,             !- Name
  {e314c6e1-6e67-48aa-b96a-7c1af6b83b2a}, !- Thermal Zone
  SequentialLoad,                         !- Load Distribution Scheme
  {564d5422-f89c-42b5-b51d-80c1d2140024}, !- Zone Equipment 1
  1,                                      !- Zone Equipment Cooling Sequence 1
  1,                                      !- Zone Equipment Heating or No-Load Sequence 1
  ,                                       !- Zone Equipment Sequential Cooling Fraction 1
  ;                                       !- Zone Equipment Sequential Heating Fraction 1

OS:Space,
  {9c61f33e-620f-48cc-a691-70315eeecafd}, !- Handle
  living space,                           !- Name
  {f2b2a4db-0d16-4bc3-a1a7-1af29fa788f6}, !- Space Type Name
  ,                                       !- Default Construction Set Name
  ,                                       !- Default Schedule Set Name
  ,                                       !- Direction of Relative North {deg}
  ,                                       !- X Origin {m}
  ,                                       !- Y Origin {m}
  ,                                       !- Z Origin {m}
  ,                                       !- Building Story Name
  {e314c6e1-6e67-48aa-b96a-7c1af6b83b2a}, !- Thermal Zone Name
  ,                                       !- Part of Total Floor Area
  ,                                       !- Design Specification Outdoor Air Object Name
  {6690ac60-465a-4f1f-a6ee-c21c94d531ef}; !- Building Unit Name

OS:Surface,
  {03f78332-9b59-4ef2-a1ed-5b9cf888ed3b}, !- Handle
  Surface 1,                              !- Name
  Floor,                                  !- Surface Type
  ,                                       !- Construction Name
  {9c61f33e-620f-48cc-a691-70315eeecafd}, !- Space Name
  Foundation,                             !- Outside Boundary Condition
  ,                                       !- Outside Boundary Condition Object
  NoSun,                                  !- Sun Exposure
  NoWind,                                 !- Wind Exposure
  ,                                       !- View Factor to Ground
  ,                                       !- Number of Vertices
  0, -12.9315688143396, 0,                !- X,Y,Z Vertex 1 {m}
  0, 0, 0,                                !- X,Y,Z Vertex 2 {m}
  6.46578440716979, 0, 0,                 !- X,Y,Z Vertex 3 {m}
  6.46578440716979, -12.9315688143396, 0; !- X,Y,Z Vertex 4 {m}

OS:Surface,
  {fd25a4b0-cac9-42b9-9180-05e6fdb88187}, !- Handle
  Surface 2,                              !- Name
  Wall,                                   !- Surface Type
  ,                                       !- Construction Name
  {9c61f33e-620f-48cc-a691-70315eeecafd}, !- Space Name
  Outdoors,                               !- Outside Boundary Condition
  ,                                       !- Outside Boundary Condition Object
  SunExposed,                             !- Sun Exposure
  WindExposed,                            !- Wind Exposure
  ,                                       !- View Factor to Ground
  ,                                       !- Number of Vertices
  0, 0, 2.4384,                           !- X,Y,Z Vertex 1 {m}
  0, 0, 0,                                !- X,Y,Z Vertex 2 {m}
  0, -12.9315688143396, 0,                !- X,Y,Z Vertex 3 {m}
  0, -12.9315688143396, 2.4384;           !- X,Y,Z Vertex 4 {m}

OS:Surface,
  {b10b5259-1156-49b8-9d77-aeb0d2b87995}, !- Handle
  Surface 3,                              !- Name
  Wall,                                   !- Surface Type
  ,                                       !- Construction Name
  {9c61f33e-620f-48cc-a691-70315eeecafd}, !- Space Name
  Outdoors,                               !- Outside Boundary Condition
  ,                                       !- Outside Boundary Condition Object
  SunExposed,                             !- Sun Exposure
  WindExposed,                            !- Wind Exposure
  ,                                       !- View Factor to Ground
  ,                                       !- Number of Vertices
  6.46578440716979, 0, 2.4384,            !- X,Y,Z Vertex 1 {m}
  6.46578440716979, 0, 0,                 !- X,Y,Z Vertex 2 {m}
  0, 0, 0,                                !- X,Y,Z Vertex 3 {m}
  0, 0, 2.4384;                           !- X,Y,Z Vertex 4 {m}

OS:Surface,
  {25ab79bc-5924-4787-8fea-11d5d72a8724}, !- Handle
  Surface 4,                              !- Name
  Wall,                                   !- Surface Type
  ,                                       !- Construction Name
  {9c61f33e-620f-48cc-a691-70315eeecafd}, !- Space Name
  Surface,                                !- Outside Boundary Condition
  {c91031cb-271d-4bd0-a990-1874b277596f}, !- Outside Boundary Condition Object
  NoSun,                                  !- Sun Exposure
  NoWind,                                 !- Wind Exposure
  ,                                       !- View Factor to Ground
  ,                                       !- Number of Vertices
  6.46578440716979, -12.9315688143396, 2.4384, !- X,Y,Z Vertex 1 {m}
  6.46578440716979, -12.9315688143396, 0, !- X,Y,Z Vertex 2 {m}
  6.46578440716979, 0, 0,                 !- X,Y,Z Vertex 3 {m}
  6.46578440716979, 0, 2.4384;            !- X,Y,Z Vertex 4 {m}

OS:Surface,
  {5f04a713-a47d-4fb6-a63b-a38c473fe1ca}, !- Handle
  Surface 5,                              !- Name
  Wall,                                   !- Surface Type
  ,                                       !- Construction Name
  {9c61f33e-620f-48cc-a691-70315eeecafd}, !- Space Name
  Outdoors,                               !- Outside Boundary Condition
  ,                                       !- Outside Boundary Condition Object
  SunExposed,                             !- Sun Exposure
  WindExposed,                            !- Wind Exposure
  ,                                       !- View Factor to Ground
  ,                                       !- Number of Vertices
  0, -12.9315688143396, 2.4384,           !- X,Y,Z Vertex 1 {m}
  0, -12.9315688143396, 0,                !- X,Y,Z Vertex 2 {m}
  6.46578440716979, -12.9315688143396, 0, !- X,Y,Z Vertex 3 {m}
  6.46578440716979, -12.9315688143396, 2.4384; !- X,Y,Z Vertex 4 {m}

OS:Surface,
  {043d9ef1-5998-4994-b91c-7d119a223267}, !- Handle
  Surface 6,                              !- Name
  RoofCeiling,                            !- Surface Type
  ,                                       !- Construction Name
  {9c61f33e-620f-48cc-a691-70315eeecafd}, !- Space Name
  Surface,                                !- Outside Boundary Condition
  {8994ee35-ac5d-40f8-a73b-cdba360f1bc8}, !- Outside Boundary Condition Object
  NoSun,                                  !- Sun Exposure
  NoWind,                                 !- Wind Exposure
  ,                                       !- View Factor to Ground
  ,                                       !- Number of Vertices
  6.46578440716979, -12.9315688143396, 2.4384, !- X,Y,Z Vertex 1 {m}
  6.46578440716979, 0, 2.4384,            !- X,Y,Z Vertex 2 {m}
  0, 0, 2.4384,                           !- X,Y,Z Vertex 3 {m}
  0, -12.9315688143396, 2.4384;           !- X,Y,Z Vertex 4 {m}

OS:SpaceType,
  {f2b2a4db-0d16-4bc3-a1a7-1af29fa788f6}, !- Handle
  Space Type 1,                           !- Name
  ,                                       !- Default Construction Set Name
  ,                                       !- Default Schedule Set Name
  ,                                       !- Group Rendering Name
  ,                                       !- Design Specification Outdoor Air Object Name
  ,                                       !- Standards Template
  ,                                       !- Standards Building Type
  living;                                 !- Standards Space Type

OS:ThermalZone,
  {2e010fed-a6a4-4b23-ac26-74296c7180d4}, !- Handle
  living zone|unit 2,                     !- Name
  ,                                       !- Multiplier
  ,                                       !- Ceiling Height {m}
  ,                                       !- Volume {m3}
  ,                                       !- Floor Area {m2}
  ,                                       !- Zone Inside Convection Algorithm
  ,                                       !- Zone Outside Convection Algorithm
  ,                                       !- Zone Conditioning Equipment List Name
  {df974c3c-a88f-4c8f-9259-0fb4e08bd30d}, !- Zone Air Inlet Port List
  {812324e8-4714-49d8-8314-a31fe4aa86c9}, !- Zone Air Exhaust Port List
  {ff8e7b96-efea-4f33-b25f-cf75b09f3cf2}, !- Zone Air Node Name
  {b27af57f-1f99-4398-8a68-5202088bc60b}, !- Zone Return Air Port List
  ,                                       !- Primary Daylighting Control Name
  ,                                       !- Fraction of Zone Controlled by Primary Daylighting Control
  ,                                       !- Secondary Daylighting Control Name
  ,                                       !- Fraction of Zone Controlled by Secondary Daylighting Control
  ,                                       !- Illuminance Map Name
  ,                                       !- Group Rendering Name
  {ea16ebcf-1e91-4857-b67e-0ea3846a4d7d}, !- Thermostat Name
  No;                                     !- Use Ideal Air Loads

OS:Node,
  {cfd76fd0-efcb-4fcc-8067-642f1f5ec885}, !- Handle
  Node 2,                                 !- Name
  {ff8e7b96-efea-4f33-b25f-cf75b09f3cf2}, !- Inlet Port
  ;                                       !- Outlet Port

OS:Connection,
  {ff8e7b96-efea-4f33-b25f-cf75b09f3cf2}, !- Handle
  {b625a2a0-93c1-4b8f-855b-a142a41ac525}, !- Name
  {2e010fed-a6a4-4b23-ac26-74296c7180d4}, !- Source Object
  11,                                     !- Outlet Port
  {cfd76fd0-efcb-4fcc-8067-642f1f5ec885}, !- Target Object
  2;                                      !- Inlet Port

OS:PortList,
  {df974c3c-a88f-4c8f-9259-0fb4e08bd30d}, !- Handle
  {6d3f23db-9164-4b5f-baed-a1eaa620a68f}, !- Name
  {2e010fed-a6a4-4b23-ac26-74296c7180d4}, !- HVAC Component
  {aafb4bac-6d78-41b0-8f22-c106a864b83f}; !- Port 1

OS:PortList,
  {812324e8-4714-49d8-8314-a31fe4aa86c9}, !- Handle
  {ace72bea-adad-43ed-bc75-492046f49411}, !- Name
  {2e010fed-a6a4-4b23-ac26-74296c7180d4}; !- HVAC Component

OS:PortList,
  {b27af57f-1f99-4398-8a68-5202088bc60b}, !- Handle
  {3245bbec-7236-4b41-8996-3e10227b4f8a}, !- Name
  {2e010fed-a6a4-4b23-ac26-74296c7180d4}, !- HVAC Component
  {4f4052e2-2393-47b7-a3b6-88ce4e07c525}; !- Port 1

OS:Sizing:Zone,
  {08aaa920-64e0-4cb2-9e22-333435bbd03c}, !- Handle
  {2e010fed-a6a4-4b23-ac26-74296c7180d4}, !- Zone or ZoneList Name
  SupplyAirTemperature,                   !- Zone Cooling Design Supply Air Temperature Input Method
  14,                                     !- Zone Cooling Design Supply Air Temperature {C}
  11.11,                                  !- Zone Cooling Design Supply Air Temperature Difference {deltaC}
  SupplyAirTemperature,                   !- Zone Heating Design Supply Air Temperature Input Method
  40,                                     !- Zone Heating Design Supply Air Temperature {C}
  11.11,                                  !- Zone Heating Design Supply Air Temperature Difference {deltaC}
  0.0085,                                 !- Zone Cooling Design Supply Air Humidity Ratio {kg-H2O/kg-air}
  0.008,                                  !- Zone Heating Design Supply Air Humidity Ratio {kg-H2O/kg-air}
  ,                                       !- Zone Heating Sizing Factor
  ,                                       !- Zone Cooling Sizing Factor
  DesignDay,                              !- Cooling Design Air Flow Method
  ,                                       !- Cooling Design Air Flow Rate {m3/s}
  ,                                       !- Cooling Minimum Air Flow per Zone Floor Area {m3/s-m2}
  ,                                       !- Cooling Minimum Air Flow {m3/s}
  ,                                       !- Cooling Minimum Air Flow Fraction
  DesignDay,                              !- Heating Design Air Flow Method
  ,                                       !- Heating Design Air Flow Rate {m3/s}
  ,                                       !- Heating Maximum Air Flow per Zone Floor Area {m3/s-m2}
  ,                                       !- Heating Maximum Air Flow {m3/s}
  ,                                       !- Heating Maximum Air Flow Fraction
  ,                                       !- Design Zone Air Distribution Effectiveness in Cooling Mode
  ,                                       !- Design Zone Air Distribution Effectiveness in Heating Mode
  No,                                     !- Account for Dedicated Outdoor Air System
  NeutralSupplyAir,                       !- Dedicated Outdoor Air System Control Strategy
  autosize,                               !- Dedicated Outdoor Air Low Setpoint Temperature for Design {C}
  autosize;                               !- Dedicated Outdoor Air High Setpoint Temperature for Design {C}

OS:ZoneHVAC:EquipmentList,
  {1a882e4a-5d68-408f-9fac-2b92f4ca8f4a}, !- Handle
  Zone HVAC Equipment List 2,             !- Name
  {2e010fed-a6a4-4b23-ac26-74296c7180d4}, !- Thermal Zone
  SequentialLoad,                         !- Load Distribution Scheme
  {c0a141ed-34f4-4d86-abb2-44c46ae31ba7}, !- Zone Equipment 1
  1,                                      !- Zone Equipment Cooling Sequence 1
  1,                                      !- Zone Equipment Heating or No-Load Sequence 1
  ,                                       !- Zone Equipment Sequential Cooling Fraction 1
  ;                                       !- Zone Equipment Sequential Heating Fraction 1

OS:Space,
  {db17c8f8-b776-4094-93cb-7421fdd11084}, !- Handle
  living space|unit 2|story 1,            !- Name
  {f2b2a4db-0d16-4bc3-a1a7-1af29fa788f6}, !- Space Type Name
  ,                                       !- Default Construction Set Name
  ,                                       !- Default Schedule Set Name
  -0,                                     !- Direction of Relative North {deg}
  0,                                      !- X Origin {m}
  0,                                      !- Y Origin {m}
  0,                                      !- Z Origin {m}
  ,                                       !- Building Story Name
  {2e010fed-a6a4-4b23-ac26-74296c7180d4}, !- Thermal Zone Name
  ,                                       !- Part of Total Floor Area
  ,                                       !- Design Specification Outdoor Air Object Name
  {1fc09e68-9513-4ea1-9431-d8b82424cae0}; !- Building Unit Name

OS:Surface,
  {578deb3f-73a9-46f7-bea7-54950af5eebf}, !- Handle
  Surface 12,                             !- Name
  Floor,                                  !- Surface Type
  ,                                       !- Construction Name
  {db17c8f8-b776-4094-93cb-7421fdd11084}, !- Space Name
  Foundation,                             !- Outside Boundary Condition
  ,                                       !- Outside Boundary Condition Object
  NoSun,                                  !- Sun Exposure
  NoWind,                                 !- Wind Exposure
  ,                                       !- View Factor to Ground
  ,                                       !- Number of Vertices
  6.46578440716979, -12.9315688143396, 0, !- X,Y,Z Vertex 1 {m}
  6.46578440716979, 0, 0,                 !- X,Y,Z Vertex 2 {m}
  12.9315688143396, 0, 0,                 !- X,Y,Z Vertex 3 {m}
  12.9315688143396, -12.9315688143396, 0; !- X,Y,Z Vertex 4 {m}

OS:Surface,
  {00588d3a-2796-4631-a22e-4f9c80be4816}, !- Handle
  Surface 13,                             !- Name
  Wall,                                   !- Surface Type
  ,                                       !- Construction Name
  {db17c8f8-b776-4094-93cb-7421fdd11084}, !- Space Name
  Surface,                                !- Outside Boundary Condition
  {ef549123-3c6d-44d4-84d8-d2b9d6530df4}, !- Outside Boundary Condition Object
  NoSun,                                  !- Sun Exposure
  NoWind,                                 !- Wind Exposure
  ,                                       !- View Factor to Ground
  ,                                       !- Number of Vertices
  12.9315688143396, -12.9315688143396, 2.4384, !- X,Y,Z Vertex 1 {m}
  12.9315688143396, -12.9315688143396, 0, !- X,Y,Z Vertex 2 {m}
  12.9315688143396, 0, 0,                 !- X,Y,Z Vertex 3 {m}
  12.9315688143396, 0, 2.4384;            !- X,Y,Z Vertex 4 {m}

OS:Surface,
  {dbcff766-2456-4def-bd6d-4280377a4fd6}, !- Handle
  Surface 14,                             !- Name
  Wall,                                   !- Surface Type
  ,                                       !- Construction Name
  {db17c8f8-b776-4094-93cb-7421fdd11084}, !- Space Name
  Outdoors,                               !- Outside Boundary Condition
  ,                                       !- Outside Boundary Condition Object
  SunExposed,                             !- Sun Exposure
  WindExposed,                            !- Wind Exposure
  ,                                       !- View Factor to Ground
  ,                                       !- Number of Vertices
  12.9315688143396, 0, 2.4384,            !- X,Y,Z Vertex 1 {m}
  12.9315688143396, 0, 0,                 !- X,Y,Z Vertex 2 {m}
  6.46578440716979, 0, 0,                 !- X,Y,Z Vertex 3 {m}
  6.46578440716979, 0, 2.4384;            !- X,Y,Z Vertex 4 {m}

OS:Surface,
  {c2df2e58-f1f1-45e6-9a39-1cf6a7bb8dd0}, !- Handle
  Surface 15,                             !- Name
  RoofCeiling,                            !- Surface Type
  ,                                       !- Construction Name
  {db17c8f8-b776-4094-93cb-7421fdd11084}, !- Space Name
  Surface,                                !- Outside Boundary Condition
  {6d005b5a-7e3c-48d7-bd19-d4889535770f}, !- Outside Boundary Condition Object
  NoSun,                                  !- Sun Exposure
  NoWind,                                 !- Wind Exposure
  ,                                       !- View Factor to Ground
  ,                                       !- Number of Vertices
  12.9315688143396, -12.9315688143396, 2.4384, !- X,Y,Z Vertex 1 {m}
  12.9315688143396, 0, 2.4384,            !- X,Y,Z Vertex 2 {m}
  6.46578440716979, 0, 2.4384,            !- X,Y,Z Vertex 3 {m}
  6.46578440716979, -12.9315688143396, 2.4384; !- X,Y,Z Vertex 4 {m}

OS:Surface,
  {03d838ae-b285-425b-8578-4f1f8ac46b5b}, !- Handle
  Surface 16,                             !- Name
  Wall,                                   !- Surface Type
  ,                                       !- Construction Name
  {db17c8f8-b776-4094-93cb-7421fdd11084}, !- Space Name
  Outdoors,                               !- Outside Boundary Condition
  ,                                       !- Outside Boundary Condition Object
  SunExposed,                             !- Sun Exposure
  WindExposed,                            !- Wind Exposure
  ,                                       !- View Factor to Ground
  ,                                       !- Number of Vertices
  6.46578440716979, -12.9315688143396, 2.4384, !- X,Y,Z Vertex 1 {m}
  6.46578440716979, -12.9315688143396, 0, !- X,Y,Z Vertex 2 {m}
  12.9315688143396, -12.9315688143396, 0, !- X,Y,Z Vertex 3 {m}
  12.9315688143396, -12.9315688143396, 2.4384; !- X,Y,Z Vertex 4 {m}

OS:Surface,
  {c91031cb-271d-4bd0-a990-1874b277596f}, !- Handle
  Surface 17,                             !- Name
  Wall,                                   !- Surface Type
  ,                                       !- Construction Name
  {db17c8f8-b776-4094-93cb-7421fdd11084}, !- Space Name
  Surface,                                !- Outside Boundary Condition
  {25ab79bc-5924-4787-8fea-11d5d72a8724}, !- Outside Boundary Condition Object
  NoSun,                                  !- Sun Exposure
  NoWind,                                 !- Wind Exposure
  ,                                       !- View Factor to Ground
  ,                                       !- Number of Vertices
  6.46578440716979, 0, 2.4384,            !- X,Y,Z Vertex 1 {m}
  6.46578440716979, 0, 0,                 !- X,Y,Z Vertex 2 {m}
  6.46578440716979, -12.9315688143396, 0, !- X,Y,Z Vertex 3 {m}
  6.46578440716979, -12.9315688143396, 2.4384; !- X,Y,Z Vertex 4 {m}

OS:ThermalZone,
  {d775c008-2e13-4d5f-8e0b-1db56658ee42}, !- Handle
  living zone|unit 3,                     !- Name
  ,                                       !- Multiplier
  ,                                       !- Ceiling Height {m}
  ,                                       !- Volume {m3}
  ,                                       !- Floor Area {m2}
  ,                                       !- Zone Inside Convection Algorithm
  ,                                       !- Zone Outside Convection Algorithm
  ,                                       !- Zone Conditioning Equipment List Name
  {0032e13f-b876-4999-82f8-f5565884c469}, !- Zone Air Inlet Port List
  {f29bdcaa-a0bd-4d6f-ab62-863859834c8b}, !- Zone Air Exhaust Port List
  {775ec90f-ea7b-4e40-be87-0e22254ab7a4}, !- Zone Air Node Name
  {5866096f-3fbd-4698-a5df-8b508871c19a}, !- Zone Return Air Port List
  ,                                       !- Primary Daylighting Control Name
  ,                                       !- Fraction of Zone Controlled by Primary Daylighting Control
  ,                                       !- Secondary Daylighting Control Name
  ,                                       !- Fraction of Zone Controlled by Secondary Daylighting Control
  ,                                       !- Illuminance Map Name
  ,                                       !- Group Rendering Name
  {8dea8f68-ae26-48c4-944c-b087b366d897}, !- Thermostat Name
  No;                                     !- Use Ideal Air Loads

OS:Node,
  {a120c2b4-75e6-4fa8-9450-cfd4209e3b88}, !- Handle
  Node 3,                                 !- Name