!- NOTE: Auto-generated from /test/osw_files/SFA_4units_1story_SL_UA_3Beds_2Baths_Denver_Furnace_CentralAC.osw

OS:Version,
  {6bd82582-d504-4e33-9025-d517e8135b8d}, !- Handle
  2.8.1;                                  !- Version Identifier

OS:SimulationControl,
  {d69094f1-5534-4efd-8652-8780611cde5e}, !- Handle
  ,                                       !- Do Zone Sizing Calculation
  ,                                       !- Do System Sizing Calculation
  ,                                       !- Do Plant Sizing Calculation
  No;                                     !- Run Simulation for Sizing Periods

OS:Timestep,
  {70ee1e19-0628-4dff-a90e-bfc7abb5a895}, !- Handle
  6;                                      !- Number of Timesteps per Hour

OS:ShadowCalculation,
  {db1bf073-4b3e-4f70-b55a-e0eeed0bd57b}, !- Handle
  20,                                     !- Calculation Frequency
  200;                                    !- Maximum Figures in Shadow Overlap Calculations

OS:SurfaceConvectionAlgorithm:Outside,
  {ebf69fc2-817d-4eae-82e0-198203914b42}, !- Handle
  DOE-2;                                  !- Algorithm

OS:SurfaceConvectionAlgorithm:Inside,
  {673eb949-5242-4875-b14b-e65511b7aa62}, !- Handle
  TARP;                                   !- Algorithm

OS:ZoneCapacitanceMultiplier:ResearchSpecial,
  {8e8d35ee-5e4e-476c-b09d-a7599b38f04c}, !- Handle
  ,                                       !- Temperature Capacity Multiplier
  15,                                     !- Humidity Capacity Multiplier
  ;                                       !- Carbon Dioxide Capacity Multiplier

OS:RunPeriod,
  {61b3135b-6554-44c8-87e8-b3df04feccff}, !- Handle
  Run Period 1,                           !- Name
  1,                                      !- Begin Month
  1,                                      !- Begin Day of Month
  12,                                     !- End Month
  31,                                     !- End Day of Month
  ,                                       !- Use Weather File Holidays and Special Days
  ,                                       !- Use Weather File Daylight Saving Period
  ,                                       !- Apply Weekend Holiday Rule
  ,                                       !- Use Weather File Rain Indicators
  ,                                       !- Use Weather File Snow Indicators
  ;                                       !- Number of Times Runperiod to be Repeated

OS:YearDescription,
  {bc36a209-0d12-47b2-8892-10c100cbc4d7}, !- Handle
  2007,                                   !- Calendar Year
  ,                                       !- Day of Week for Start Day
  ;                                       !- Is Leap Year

OS:ThermalZone,
  {1edfb01d-5239-4a31-9ba2-a01e32a9c968}, !- Handle
  living zone,                            !- Name
  ,                                       !- Multiplier
  ,                                       !- Ceiling Height {m}
  ,                                       !- Volume {m3}
  ,                                       !- Floor Area {m2}
  ,                                       !- Zone Inside Convection Algorithm
  ,                                       !- Zone Outside Convection Algorithm
  ,                                       !- Zone Conditioning Equipment List Name
  {5a6efa3f-7cf1-4805-bc5e-b98424435005}, !- Zone Air Inlet Port List
  {a5c9e51b-64d0-49f6-8f10-1c1f704948ca}, !- Zone Air Exhaust Port List
  {da522550-d4a4-453c-b196-69902d063569}, !- Zone Air Node Name
  {b6c317c9-cc14-4974-a59a-2a5a5a06ae54}, !- Zone Return Air Port List
  ,                                       !- Primary Daylighting Control Name
  ,                                       !- Fraction of Zone Controlled by Primary Daylighting Control
  ,                                       !- Secondary Daylighting Control Name
  ,                                       !- Fraction of Zone Controlled by Secondary Daylighting Control
  ,                                       !- Illuminance Map Name
  ,                                       !- Group Rendering Name
  {a360beb2-3762-4525-9d68-f0e7f6e5469f}, !- Thermostat Name
  No;                                     !- Use Ideal Air Loads

OS:Node,
  {b2128bb8-f8fd-4dc8-9e30-d2ff0c033935}, !- Handle
  Node 1,                                 !- Name
  {da522550-d4a4-453c-b196-69902d063569}, !- Inlet Port
  ;                                       !- Outlet Port

OS:Connection,
  {da522550-d4a4-453c-b196-69902d063569}, !- Handle
  {a8313a2c-d122-41ef-bd10-7fd92d561e7f}, !- Name
  {1edfb01d-5239-4a31-9ba2-a01e32a9c968}, !- Source Object
  11,                                     !- Outlet Port
  {b2128bb8-f8fd-4dc8-9e30-d2ff0c033935}, !- Target Object
  2;                                      !- Inlet Port

OS:PortList,
  {5a6efa3f-7cf1-4805-bc5e-b98424435005}, !- Handle
  {58d6b6bc-682d-4ec3-9e7c-4d3c63d8d322}, !- Name
  {1edfb01d-5239-4a31-9ba2-a01e32a9c968}, !- HVAC Component
  {ea38589f-c018-4f6b-a300-3bd8133d21e2}, !- Port 1
  {3c81ced8-a92d-4d00-b3f9-273065a583ff}; !- Port 2

OS:PortList,
  {a5c9e51b-64d0-49f6-8f10-1c1f704948ca}, !- Handle
  {76de5e4b-4d84-45f7-a51f-19b085775fbc}, !- Name
  {1edfb01d-5239-4a31-9ba2-a01e32a9c968}; !- HVAC Component

OS:PortList,
  {b6c317c9-cc14-4974-a59a-2a5a5a06ae54}, !- Handle
  {60616870-b3bd-4c21-ab36-d4ebfa6ef5f0}, !- Name
  {1edfb01d-5239-4a31-9ba2-a01e32a9c968}, !- HVAC Component
  {9e96f261-835d-4892-b7f4-c4dd2204cc6b}, !- Port 1
  {d2c58826-2ad9-4c5f-8a9e-6463b7e96d2f}; !- Port 2

OS:Sizing:Zone,
  {9622df58-0aa7-4e08-9e16-23931ed0da8d}, !- Handle
  {1edfb01d-5239-4a31-9ba2-a01e32a9c968}, !- Zone or ZoneList Name
  SupplyAirTemperature,                   !- Zone Cooling Design Supply Air Temperature Input Method
  14,                                     !- Zone Cooling Design Supply Air Temperature {C}
  11.11,                                  !- Zone Cooling Design Supply Air Temperature Difference {deltaC}
  SupplyAirTemperature,                   !- Zone Heating Design Supply Air Temperature Input Method
  40,                                     !- Zone Heating Design Supply Air Temperature {C}
  11.11,                                  !- Zone Heating Design Supply Air Temperature Difference {deltaC}
  0.0085,                                 !- Zone Cooling Design Supply Air Humidity Ratio {kg-H2O/kg-air}
  0.008,                                  !- Zone Heating Design Supply Air Humidity Ratio {kg-H2O/kg-air}
  ,                                       !- Zone Heating Sizing Factor
  ,                                       !- Zone Cooling Sizing Factor
  DesignDay,                              !- Cooling Design Air Flow Method
  ,                                       !- Cooling Design Air Flow Rate {m3/s}
  ,                                       !- Cooling Minimum Air Flow per Zone Floor Area {m3/s-m2}
  ,                                       !- Cooling Minimum Air Flow {m3/s}
  ,                                       !- Cooling Minimum Air Flow Fraction
  DesignDay,                              !- Heating Design Air Flow Method
  ,                                       !- Heating Design Air Flow Rate {m3/s}
  ,                                       !- Heating Maximum Air Flow per Zone Floor Area {m3/s-m2}
  ,                                       !- Heating Maximum Air Flow {m3/s}
  ,                                       !- Heating Maximum Air Flow Fraction
  ,                                       !- Design Zone Air Distribution Effectiveness in Cooling Mode
  ,                                       !- Design Zone Air Distribution Effectiveness in Heating Mode
  No,                                     !- Account for Dedicated Outdoor Air System
  NeutralSupplyAir,                       !- Dedicated Outdoor Air System Control Strategy
  autosize,                               !- Dedicated Outdoor Air Low Setpoint Temperature for Design {C}
  autosize;                               !- Dedicated Outdoor Air High Setpoint Temperature for Design {C}

OS:ZoneHVAC:EquipmentList,
  {c959cc58-2f3f-4d2f-9b36-b7ae6ba0f92c}, !- Handle
  Zone HVAC Equipment List 1,             !- Name
  {1edfb01d-5239-4a31-9ba2-a01e32a9c968}, !- Thermal Zone
  SequentialLoad,                         !- Load Distribution Scheme
  {0fbb8c9c-1e9f-4f89-b472-2b3a730a1f62}, !- Zone Equipment 1
  1,                                      !- Zone Equipment Cooling Sequence 1
  1,                                      !- Zone Equipment Heating or No-Load Sequence 1
  ,                                       !- Zone Equipment Sequential Cooling Fraction 1
  ,                                       !- Zone Equipment Sequential Heating Fraction 1
  {af0990aa-81ea-435d-a4a4-4b333695862a}, !- Zone Equipment 2
  2,                                      !- Zone Equipment Cooling Sequence 2
  2,                                      !- Zone Equipment Heating or No-Load Sequence 2
  ,                                       !- Zone Equipment Sequential Cooling Fraction 2
  ;                                       !- Zone Equipment Sequential Heating Fraction 2

OS:Space,
  {9287f03d-6a38-4d82-ae32-f31d6b8e0aa5}, !- Handle
  living space,                           !- Name
  {8e9d61c2-a3b3-4dca-8526-2d3d9111ef4b}, !- Space Type Name
  ,                                       !- Default Construction Set Name
  ,                                       !- Default Schedule Set Name
  ,                                       !- Direction of Relative North {deg}
  ,                                       !- X Origin {m}
  ,                                       !- Y Origin {m}
  ,                                       !- Z Origin {m}
  ,                                       !- Building Story Name
  {1edfb01d-5239-4a31-9ba2-a01e32a9c968}, !- Thermal Zone Name
  ,                                       !- Part of Total Floor Area
  ,                                       !- Design Specification Outdoor Air Object Name
  {d9bf869f-bcc4-4476-bc4c-524cf1190c18}; !- Building Unit Name

OS:Surface,
  {2fb5ee10-de7f-4e98-8b17-1d5649acf3d4}, !- Handle
  Surface 1,                              !- Name
  Floor,                                  !- Surface Type
  ,                                       !- Construction Name
  {9287f03d-6a38-4d82-ae32-f31d6b8e0aa5}, !- Space Name
  Foundation,                             !- Outside Boundary Condition
  ,                                       !- Outside Boundary Condition Object
  NoSun,                                  !- Sun Exposure
  NoWind,                                 !- Wind Exposure
  ,                                       !- View Factor to Ground
  ,                                       !- Number of Vertices
  0, -12.9315688143396, 0,                !- X,Y,Z Vertex 1 {m}
  0, 0, 0,                                !- X,Y,Z Vertex 2 {m}
  6.46578440716979, 0, 0,                 !- X,Y,Z Vertex 3 {m}
  6.46578440716979, -12.9315688143396, 0; !- X,Y,Z Vertex 4 {m}

OS:Surface,
  {222f7e30-433b-48e7-965f-cdada3e086c7}, !- Handle
  Surface 2,                              !- Name
  Wall,                                   !- Surface Type
  ,                                       !- Construction Name
  {9287f03d-6a38-4d82-ae32-f31d6b8e0aa5}, !- Space Name
  Outdoors,                               !- Outside Boundary Condition
  ,                                       !- Outside Boundary Condition Object
  SunExposed,                             !- Sun Exposure
  WindExposed,                            !- Wind Exposure
  ,                                       !- View Factor to Ground
  ,                                       !- Number of Vertices
  0, 0, 2.4384,                           !- X,Y,Z Vertex 1 {m}
  0, 0, 0,                                !- X,Y,Z Vertex 2 {m}
  0, -12.9315688143396, 0,                !- X,Y,Z Vertex 3 {m}
  0, -12.9315688143396, 2.4384;           !- X,Y,Z Vertex 4 {m}

OS:Surface,
  {89d7a578-795b-40c9-823a-2d7d1354c3cc}, !- Handle
  Surface 3,                              !- Name
  Wall,                                   !- Surface Type
  ,                                       !- Construction Name
  {9287f03d-6a38-4d82-ae32-f31d6b8e0aa5}, !- Space Name
  Outdoors,                               !- Outside Boundary Condition
  ,                                       !- Outside Boundary Condition Object
  SunExposed,                             !- Sun Exposure
  WindExposed,                            !- Wind Exposure
  ,                                       !- View Factor to Ground
  ,                                       !- Number of Vertices
  6.46578440716979, 0, 2.4384,            !- X,Y,Z Vertex 1 {m}
  6.46578440716979, 0, 0,                 !- X,Y,Z Vertex 2 {m}
  0, 0, 0,                                !- X,Y,Z Vertex 3 {m}
  0, 0, 2.4384;                           !- X,Y,Z Vertex 4 {m}

OS:Surface,
  {ca961f86-f865-4337-8c72-0cd351a0617c}, !- Handle
  Surface 4,                              !- Name
  Wall,                                   !- Surface Type
  ,                                       !- Construction Name
  {9287f03d-6a38-4d82-ae32-f31d6b8e0aa5}, !- Space Name
  Surface,                                !- Outside Boundary Condition
  {09499834-fbbd-413a-b3a9-c9467ba9c09b}, !- Outside Boundary Condition Object
  NoSun,                                  !- Sun Exposure
  NoWind,                                 !- Wind Exposure
  ,                                       !- View Factor to Ground
  ,                                       !- Number of Vertices
  6.46578440716979, -12.9315688143396, 2.4384, !- X,Y,Z Vertex 1 {m}
  6.46578440716979, -12.9315688143396, 0, !- X,Y,Z Vertex 2 {m}
  6.46578440716979, 0, 0,                 !- X,Y,Z Vertex 3 {m}
  6.46578440716979, 0, 2.4384;            !- X,Y,Z Vertex 4 {m}

OS:Surface,
  {017efbfd-8990-432c-97f0-e17a8cd89c1c}, !- Handle
  Surface 5,                              !- Name
  Wall,                                   !- Surface Type
  ,                                       !- Construction Name
  {9287f03d-6a38-4d82-ae32-f31d6b8e0aa5}, !- Space Name
  Outdoors,                               !- Outside Boundary Condition
  ,                                       !- Outside Boundary Condition Object
  SunExposed,                             !- Sun Exposure
  WindExposed,                            !- Wind Exposure
  ,                                       !- View Factor to Ground
  ,                                       !- Number of Vertices
  0, -12.9315688143396, 2.4384,           !- X,Y,Z Vertex 1 {m}
  0, -12.9315688143396, 0,                !- X,Y,Z Vertex 2 {m}
  6.46578440716979, -12.9315688143396, 0, !- X,Y,Z Vertex 3 {m}
  6.46578440716979, -12.9315688143396, 2.4384; !- X,Y,Z Vertex 4 {m}

OS:Surface,
  {275da3ac-67e6-43f1-a05e-2086e1b877ff}, !- Handle
  Surface 6,                              !- Name
  RoofCeiling,                            !- Surface Type
  ,                                       !- Construction Name
  {9287f03d-6a38-4d82-ae32-f31d6b8e0aa5}, !- Space Name
  Surface,                                !- Outside Boundary Condition
  {43127cf7-75d6-4bfa-88d8-1d169c7c29df}, !- Outside Boundary Condition Object
  NoSun,                                  !- Sun Exposure
  NoWind,                                 !- Wind Exposure
  ,                                       !- View Factor to Ground
  ,                                       !- Number of Vertices
  6.46578440716979, -12.9315688143396, 2.4384, !- X,Y,Z Vertex 1 {m}
  6.46578440716979, 0, 2.4384,            !- X,Y,Z Vertex 2 {m}
  0, 0, 2.4384,                           !- X,Y,Z Vertex 3 {m}
  0, -12.9315688143396, 2.4384;           !- X,Y,Z Vertex 4 {m}

OS:SpaceType,
  {8e9d61c2-a3b3-4dca-8526-2d3d9111ef4b}, !- Handle
  Space Type 1,                           !- Name
  ,                                       !- Default Construction Set Name
  ,                                       !- Default Schedule Set Name
  ,                                       !- Group Rendering Name
  ,                                       !- Design Specification Outdoor Air Object Name
  ,                                       !- Standards Template
  ,                                       !- Standards Building Type
  living;                                 !- Standards Space Type

OS:ThermalZone,
  {f8dfaf4b-e4f2-4ef9-a9eb-d00f30f3b391}, !- Handle
  living zone|unit 2,                     !- Name
  ,                                       !- Multiplier
  ,                                       !- Ceiling Height {m}
  ,                                       !- Volume {m3}
  ,                                       !- Floor Area {m2}
  ,                                       !- Zone Inside Convection Algorithm
  ,                                       !- Zone Outside Convection Algorithm
  ,                                       !- Zone Conditioning Equipment List Name
  {86114ada-270b-4e56-abc4-37e07ac0fe5a}, !- Zone Air Inlet Port List
  {38593075-c770-4dac-bb21-b66ff1a3b1a8}, !- Zone Air Exhaust Port List
  {6b871676-44bb-41fc-8a29-9dc457ecbe5d}, !- Zone Air Node Name
  {90369ce7-518e-4ec4-b3e6-2f2a90d5182f}, !- Zone Return Air Port List
  ,                                       !- Primary Daylighting Control Name
  ,                                       !- Fraction of Zone Controlled by Primary Daylighting Control
  ,                                       !- Secondary Daylighting Control Name
  ,                                       !- Fraction of Zone Controlled by Secondary Daylighting Control
  ,                                       !- Illuminance Map Name
  ,                                       !- Group Rendering Name
  {730dea56-67a4-496d-aa0c-b7403784b1b3}, !- Thermostat Name
  No;                                     !- Use Ideal Air Loads

OS:Node,
  {1acaeef1-ca02-440c-a23d-488d807996f6}, !- Handle
  Node 2,                                 !- Name
  {6b871676-44bb-41fc-8a29-9dc457ecbe5d}, !- Inlet Port
  ;                                       !- Outlet Port

OS:Connection,
  {6b871676-44bb-41fc-8a29-9dc457ecbe5d}, !- Handle
  {afa23439-fa79-454c-a936-a8c73ad6eea3}, !- Name
  {f8dfaf4b-e4f2-4ef9-a9eb-d00f30f3b391}, !- Source Object
  11,                                     !- Outlet Port
  {1acaeef1-ca02-440c-a23d-488d807996f6}, !- Target Object
  2;                                      !- Inlet Port

OS:PortList,
  {86114ada-270b-4e56-abc4-37e07ac0fe5a}, !- Handle
  {81865d36-f7bf-4950-bbf3-f03a5416f899}, !- Name
  {f8dfaf4b-e4f2-4ef9-a9eb-d00f30f3b391}, !- HVAC Component
  {562dca42-612a-40af-afa9-6702b6507bcd}, !- Port 1
  {65642b7e-bb60-40dd-8bb4-39fa2f92e2ef}; !- Port 2

OS:PortList,
  {38593075-c770-4dac-bb21-b66ff1a3b1a8}, !- Handle
  {29be64e1-e631-4ed5-b4ed-042f4c8c5a1a}, !- Name
  {f8dfaf4b-e4f2-4ef9-a9eb-d00f30f3b391}; !- HVAC Component

OS:PortList,
  {90369ce7-518e-4ec4-b3e6-2f2a90d5182f}, !- Handle
  {3134c124-3239-4fc1-90b9-d14dd9ae96a8}, !- Name
  {f8dfaf4b-e4f2-4ef9-a9eb-d00f30f3b391}, !- HVAC Component
  {249ec666-ce2b-483f-ab2d-1760b010140f}, !- Port 1
  {a5343f78-724e-4c8f-91ea-ce63186afdf0}; !- Port 2

OS:Sizing:Zone,
  {c69b842c-b074-43e8-83eb-7c8a089131f6}, !- Handle
  {f8dfaf4b-e4f2-4ef9-a9eb-d00f30f3b391}, !- Zone or ZoneList Name
  SupplyAirTemperature,                   !- Zone Cooling Design Supply Air Temperature Input Method
  14,                                     !- Zone Cooling Design Supply Air Temperature {C}
  11.11,                                  !- Zone Cooling Design Supply Air Temperature Difference {deltaC}
  SupplyAirTemperature,                   !- Zone Heating Design Supply Air Temperature Input Method
  40,                                     !- Zone Heating Design Supply Air Temperature {C}
  11.11,                                  !- Zone Heating Design Supply Air Temperature Difference {deltaC}
  0.0085,                                 !- Zone Cooling Design Supply Air Humidity Ratio {kg-H2O/kg-air}
  0.008,                                  !- Zone Heating Design Supply Air Humidity Ratio {kg-H2O/kg-air}
  ,                                       !- Zone Heating Sizing Factor
  ,                                       !- Zone Cooling Sizing Factor
  DesignDay,                              !- Cooling Design Air Flow Method
  ,                                       !- Cooling Design Air Flow Rate {m3/s}
  ,                                       !- Cooling Minimum Air Flow per Zone Floor Area {m3/s-m2}
  ,                                       !- Cooling Minimum Air Flow {m3/s}
  ,                                       !- Cooling Minimum Air Flow Fraction
  DesignDay,                              !- Heating Design Air Flow Method
  ,                                       !- Heating Design Air Flow Rate {m3/s}
  ,                                       !- Heating Maximum Air Flow per Zone Floor Area {m3/s-m2}
  ,                                       !- Heating Maximum Air Flow {m3/s}
  ,                                       !- Heating Maximum Air Flow Fraction
  ,                                       !- Design Zone Air Distribution Effectiveness in Cooling Mode
  ,                                       !- Design Zone Air Distribution Effectiveness in Heating Mode
  No,                                     !- Account for Dedicated Outdoor Air System
  NeutralSupplyAir,                       !- Dedicated Outdoor Air System Control Strategy
  autosize,                               !- Dedicated Outdoor Air Low Setpoint Temperature for Design {C}
  autosize;                               !- Dedicated Outdoor Air High Setpoint Temperature for Design {C}

OS:ZoneHVAC:EquipmentList,
  {3f3e50a2-1036-4bb2-a307-94e10de99bc7}, !- Handle
  Zone HVAC Equipment List 2,             !- Name
  {f8dfaf4b-e4f2-4ef9-a9eb-d00f30f3b391}, !- Thermal Zone
  SequentialLoad,                         !- Load Distribution Scheme
  {2115c257-28a7-4d3a-988d-9393f2ef9524}, !- Zone Equipment 1
  1,                                      !- Zone Equipment Cooling Sequence 1
  1,                                      !- Zone Equipment Heating or No-Load Sequence 1
  ,                                       !- Zone Equipment Sequential Cooling Fraction 1
  ,                                       !- Zone Equipment Sequential Heating Fraction 1
  {c9a1ecff-0a32-461d-b6d4-688ac76d3ab3}, !- Zone Equipment 2
  2,                                      !- Zone Equipment Cooling Sequence 2
  2,                                      !- Zone Equipment Heating or No-Load Sequence 2
  ,                                       !- Zone Equipment Sequential Cooling Fraction 2
  ;                                       !- Zone Equipment Sequential Heating Fraction 2

OS:Space,
  {07936115-5978-456a-a2f9-4a9bb033220b}, !- Handle
  living space|unit 2|story 1,            !- Name
  {8e9d61c2-a3b3-4dca-8526-2d3d9111ef4b}, !- Space Type Name
  ,                                       !- Default Construction Set Name
  ,                                       !- Default Schedule Set Name
  -0,                                     !- Direction of Relative North {deg}
  0,                                      !- X Origin {m}
  0,                                      !- Y Origin {m}
  0,                                      !- Z Origin {m}
  ,                                       !- Building Story Name
  {f8dfaf4b-e4f2-4ef9-a9eb-d00f30f3b391}, !- Thermal Zone Name
  ,                                       !- Part of Total Floor Area
  ,                                       !- Design Specification Outdoor Air Object Name
  {ff498b85-a491-4456-9b7b-e1734caddee8}; !- Building Unit Name

OS:Surface,
  {7aa4a48e-b121-4f15-9a81-c1a6dbb1c2cb}, !- Handle
  Surface 12,                             !- Name
  Wall,                                   !- Surface Type
  ,                                       !- Construction Name
  {07936115-5978-456a-a2f9-4a9bb033220b}, !- Space Name
  Surface,                                !- Outside Boundary Condition
  {bd84d133-c64c-49c0-85c8-7de73120f5f8}, !- Outside Boundary Condition Object
  NoSun,                                  !- Sun Exposure
  NoWind,                                 !- Wind Exposure
  ,                                       !- View Factor to Ground
  ,                                       !- Number of Vertices
  12.9315688143396, -12.9315688143396, 2.4384, !- X,Y,Z Vertex 1 {m}
  12.9315688143396, -12.9315688143396, 0, !- X,Y,Z Vertex 2 {m}
  12.9315688143396, 0, 0,                 !- X,Y,Z Vertex 3 {m}
  12.9315688143396, 0, 2.4384;            !- X,Y,Z Vertex 4 {m}

OS:Surface,
  {48c20626-241a-4007-a37f-55bf8c5d4c43}, !- Handle
  Surface 13,                             !- Name
  Wall,                                   !- Surface Type
  ,                                       !- Construction Name
  {07936115-5978-456a-a2f9-4a9bb033220b}, !- Space Name
  Outdoors,                               !- Outside Boundary Condition
  ,                                       !- Outside Boundary Condition Object
  SunExposed,                             !- Sun Exposure
  WindExposed,                            !- Wind Exposure
  ,                                       !- View Factor to Ground
  ,                                       !- Number of Vertices
  6.46578440716979, -12.9315688143396, 2.4384, !- X,Y,Z Vertex 1 {m}
  6.46578440716979, -12.9315688143396, 0, !- X,Y,Z Vertex 2 {m}
  12.9315688143396, -12.9315688143396, 0, !- X,Y,Z Vertex 3 {m}
  12.9315688143396, -12.9315688143396, 2.4384; !- X,Y,Z Vertex 4 {m}

OS:Surface,
  {92da7a97-d04d-4ff9-832c-28d48b665a45}, !- Handle
  Surface 14,                             !- Name
  RoofCeiling,                            !- Surface Type
  ,                                       !- Construction Name
  {07936115-5978-456a-a2f9-4a9bb033220b}, !- Space Name
  Surface,                                !- Outside Boundary Condition
  {fb293946-10ee-4355-bb8b-e278535dc9f4}, !- Outside Boundary Condition Object
  NoSun,                                  !- Sun Exposure
  NoWind,                                 !- Wind Exposure
  ,                                       !- View Factor to Ground
  ,                                       !- Number of Vertices
  12.9315688143396, -12.9315688143396, 2.4384, !- X,Y,Z Vertex 1 {m}
  12.9315688143396, 0, 2.4384,            !- X,Y,Z Vertex 2 {m}
  6.46578440716979, 0, 2.4384,            !- X,Y,Z Vertex 3 {m}
  6.46578440716979, -12.9315688143396, 2.4384; !- X,Y,Z Vertex 4 {m}

OS:Surface,
  {38ebd915-3c61-4bdf-ae67-c416f5f9ab4d}, !- Handle
  Surface 15,                             !- Name
  Floor,                                  !- Surface Type
  ,                                       !- Construction Name
  {07936115-5978-456a-a2f9-4a9bb033220b}, !- Space Name
  Foundation,                             !- Outside Boundary Condition
  ,                                       !- Outside Boundary Condition Object
  NoSun,                                  !- Sun Exposure
  NoWind,                                 !- Wind Exposure
  ,                                       !- View Factor to Ground
  ,                                       !- Number of Vertices
  6.46578440716979, -12.9315688143396, 0, !- X,Y,Z Vertex 1 {m}
  6.46578440716979, 0, 0,                 !- X,Y,Z Vertex 2 {m}
  12.9315688143396, 0, 0,                 !- X,Y,Z Vertex 3 {m}
  12.9315688143396, -12.9315688143396, 0; !- X,Y,Z Vertex 4 {m}

OS:Surface,
  {09499834-fbbd-413a-b3a9-c9467ba9c09b}, !- Handle
  Surface 16,                             !- Name
  Wall,                                   !- Surface Type
  ,                                       !- Construction Name
  {07936115-5978-456a-a2f9-4a9bb033220b}, !- Space Name
  Surface,                                !- Outside Boundary Condition
  {ca961f86-f865-4337-8c72-0cd351a0617c}, !- Outside Boundary Condition Object
  NoSun,                                  !- Sun Exposure
  NoWind,                                 !- Wind Exposure
  ,                                       !- View Factor to Ground
  ,                                       !- Number of Vertices
  6.46578440716979, 0, 2.4384,            !- X,Y,Z Vertex 1 {m}
  6.46578440716979, 0, 0,                 !- X,Y,Z Vertex 2 {m}
  6.46578440716979, -12.9315688143396, 0, !- X,Y,Z Vertex 3 {m}
  6.46578440716979, -12.9315688143396, 2.4384; !- X,Y,Z Vertex 4 {m}

OS:Surface,
  {c21b60ea-60a2-40a4-b453-72c98e03260e}, !- Handle
  Surface 17,                             !- Name
  Wall,                                   !- Surface Type
  ,                                       !- Construction Name
  {07936115-5978-456a-a2f9-4a9bb033220b}, !- Space Name
  Outdoors,                               !- Outside Boundary Condition
  ,                                       !- Outside Boundary Condition Object
  SunExposed,                             !- Sun Exposure
  WindExposed,                            !- Wind Exposure
  ,                                       !- View Factor to Ground
  ,                                       !- Number of Vertices
  12.9315688143396, 0, 2.4384,            !- X,Y,Z Vertex 1 {m}
  12.9315688143396, 0, 0,                 !- X,Y,Z Vertex 2 {m}
  6.46578440716979, 0, 0,                 !- X,Y,Z Vertex 3 {m}
  6.46578440716979, 0, 2.4384;            !- X,Y,Z Vertex 4 {m}

OS:ThermalZone,
  {f5585368-ff1c-4c72-a73b-ac49cebd22cf}, !- Handle
  living zone|unit 3,                     !- Name
  ,                                       !- Multiplier
  ,                                       !- Ceiling Height {m}
  ,                                       !- Volume {m3}
  ,                                       !- Floor Area {m2}
  ,                                       !- Zone Inside Convection Algorithm
  ,                                       !- Zone Outside Convection Algorithm