!- NOTE: Auto-generated from /test/osw_files/SFA_10units_2story_SL_3Beds_1pt5Baths_Denver_Furnace_CentralAC.osw

OS:Version,
  {a846a7f4-eb8b-4923-9cd9-21f8499a2f1f}, !- Handle
  2.9.0;                                  !- Version Identifier

OS:SimulationControl,
  {ea21785b-19a9-4de1-a343-f8b7b46aa03b}, !- Handle
  ,                                       !- Do Zone Sizing Calculation
  ,                                       !- Do System Sizing Calculation
  ,                                       !- Do Plant Sizing Calculation
  No;                                     !- Run Simulation for Sizing Periods

OS:Timestep,
  {b4d3fec9-80e7-4042-b79a-973a82581471}, !- Handle
  6;                                      !- Number of Timesteps per Hour

OS:ShadowCalculation,
  {61468d3a-103c-4083-9af3-e3a071caeb9b}, !- Handle
  20,                                     !- Calculation Frequency
  200;                                    !- Maximum Figures in Shadow Overlap Calculations

OS:SurfaceConvectionAlgorithm:Outside,
  {1b4e78ed-d31e-4d9c-922e-6e543db1c74e}, !- Handle
  DOE-2;                                  !- Algorithm

OS:SurfaceConvectionAlgorithm:Inside,
  {6bf9a16e-71ca-453d-ab60-4f1d2f06364f}, !- Handle
  TARP;                                   !- Algorithm

OS:ZoneCapacitanceMultiplier:ResearchSpecial,
  {3f7ca06a-264f-4be6-8006-4ef87562ae58}, !- Handle
  ,                                       !- Temperature Capacity Multiplier
  15,                                     !- Humidity Capacity Multiplier
  ;                                       !- Carbon Dioxide Capacity Multiplier

OS:RunPeriod,
  {35a5e251-1d9e-42fe-8437-3744e5ddd64f}, !- Handle
  Run Period 1,                           !- Name
  1,                                      !- Begin Month
  1,                                      !- Begin Day of Month
  12,                                     !- End Month
  31,                                     !- End Day of Month
  ,                                       !- Use Weather File Holidays and Special Days
  ,                                       !- Use Weather File Daylight Saving Period
  ,                                       !- Apply Weekend Holiday Rule
  ,                                       !- Use Weather File Rain Indicators
  ,                                       !- Use Weather File Snow Indicators
  ;                                       !- Number of Times Runperiod to be Repeated

OS:YearDescription,
  {2b7a5119-e322-4f38-8b39-de44cc204616}, !- Handle
  2007,                                   !- Calendar Year
  ,                                       !- Day of Week for Start Day
  ;                                       !- Is Leap Year

OS:ThermalZone,
  {6bb875e4-41cd-4790-8105-4ca854053379}, !- Handle
  living zone,                            !- Name
  ,                                       !- Multiplier
  ,                                       !- Ceiling Height {m}
  ,                                       !- Volume {m3}
  ,                                       !- Floor Area {m2}
  ,                                       !- Zone Inside Convection Algorithm
  ,                                       !- Zone Outside Convection Algorithm
  ,                                       !- Zone Conditioning Equipment List Name
  {7cf7af26-fb63-461c-a9be-34f8509bc0e3}, !- Zone Air Inlet Port List
  {e704144d-be3c-4291-860f-e123eb0a32b7}, !- Zone Air Exhaust Port List
  {706bee9f-8afd-458d-9d6e-79125371315a}, !- Zone Air Node Name
  {bd880372-447a-415d-907c-8caee4838fb1}, !- Zone Return Air Port List
  ,                                       !- Primary Daylighting Control Name
  ,                                       !- Fraction of Zone Controlled by Primary Daylighting Control
  ,                                       !- Secondary Daylighting Control Name
  ,                                       !- Fraction of Zone Controlled by Secondary Daylighting Control
  ,                                       !- Illuminance Map Name
  ,                                       !- Group Rendering Name
  {008429dc-0817-47f6-9348-befd4f13100f}, !- Thermostat Name
  No;                                     !- Use Ideal Air Loads

OS:Node,
  {89a03c19-1937-4cc1-8409-c5500744ca03}, !- Handle
  Node 1,                                 !- Name
  {706bee9f-8afd-458d-9d6e-79125371315a}, !- Inlet Port
  ;                                       !- Outlet Port

OS:Connection,
  {706bee9f-8afd-458d-9d6e-79125371315a}, !- Handle
  {126fe4f2-f1a0-4356-9d74-cefe74e4e965}, !- Name
  {6bb875e4-41cd-4790-8105-4ca854053379}, !- Source Object
  11,                                     !- Outlet Port
  {89a03c19-1937-4cc1-8409-c5500744ca03}, !- Target Object
  2;                                      !- Inlet Port

OS:PortList,
  {7cf7af26-fb63-461c-a9be-34f8509bc0e3}, !- Handle
  {064750a3-4ad9-4cc2-b03d-e38d8040f7c8}, !- Name
  {6bb875e4-41cd-4790-8105-4ca854053379}, !- HVAC Component
  {bf69e333-b8a2-403f-a64c-0989b32d7b31}, !- Port 1
  {2a609fca-6431-4489-877c-ae5ca9fc41ae}; !- Port 2

OS:PortList,
  {e704144d-be3c-4291-860f-e123eb0a32b7}, !- Handle
  {9b34aaa1-0776-4ae2-94b2-10d4af30124a}, !- Name
  {6bb875e4-41cd-4790-8105-4ca854053379}; !- HVAC Component

OS:PortList,
  {bd880372-447a-415d-907c-8caee4838fb1}, !- Handle
  {196f568a-1177-4f11-a231-d173843f96b5}, !- Name
  {6bb875e4-41cd-4790-8105-4ca854053379}, !- HVAC Component
  {d856ebd2-221d-4757-9559-b56d1964ec92}, !- Port 1
  {3453760a-e9f4-4885-a085-7b0f7390a729}; !- Port 2

OS:Sizing:Zone,
  {a582a9d2-3687-4937-a8dd-c6286c74f822}, !- Handle
  {6bb875e4-41cd-4790-8105-4ca854053379}, !- Zone or ZoneList Name
  SupplyAirTemperature,                   !- Zone Cooling Design Supply Air Temperature Input Method
  14,                                     !- Zone Cooling Design Supply Air Temperature {C}
  11.11,                                  !- Zone Cooling Design Supply Air Temperature Difference {deltaC}
  SupplyAirTemperature,                   !- Zone Heating Design Supply Air Temperature Input Method
  40,                                     !- Zone Heating Design Supply Air Temperature {C}
  11.11,                                  !- Zone Heating Design Supply Air Temperature Difference {deltaC}
  0.0085,                                 !- Zone Cooling Design Supply Air Humidity Ratio {kg-H2O/kg-air}
  0.008,                                  !- Zone Heating Design Supply Air Humidity Ratio {kg-H2O/kg-air}
  ,                                       !- Zone Heating Sizing Factor
  ,                                       !- Zone Cooling Sizing Factor
  DesignDay,                              !- Cooling Design Air Flow Method
  ,                                       !- Cooling Design Air Flow Rate {m3/s}
  ,                                       !- Cooling Minimum Air Flow per Zone Floor Area {m3/s-m2}
  ,                                       !- Cooling Minimum Air Flow {m3/s}
  ,                                       !- Cooling Minimum Air Flow Fraction
  DesignDay,                              !- Heating Design Air Flow Method
  ,                                       !- Heating Design Air Flow Rate {m3/s}
  ,                                       !- Heating Maximum Air Flow per Zone Floor Area {m3/s-m2}
  ,                                       !- Heating Maximum Air Flow {m3/s}
  ,                                       !- Heating Maximum Air Flow Fraction
  ,                                       !- Design Zone Air Distribution Effectiveness in Cooling Mode
  ,                                       !- Design Zone Air Distribution Effectiveness in Heating Mode
  No,                                     !- Account for Dedicated Outdoor Air System
  NeutralSupplyAir,                       !- Dedicated Outdoor Air System Control Strategy
  autosize,                               !- Dedicated Outdoor Air Low Setpoint Temperature for Design {C}
  autosize;                               !- Dedicated Outdoor Air High Setpoint Temperature for Design {C}

OS:ZoneHVAC:EquipmentList,
  {9802d25d-c443-4ae7-9510-2e3a1762ccf7}, !- Handle
  Zone HVAC Equipment List 1,             !- Name
  {6bb875e4-41cd-4790-8105-4ca854053379}, !- Thermal Zone
  SequentialLoad,                         !- Load Distribution Scheme
  {57fba197-c6cf-45f1-b37c-fc2da69ea93f}, !- Zone Equipment 1
  1,                                      !- Zone Equipment Cooling Sequence 1
  1,                                      !- Zone Equipment Heating or No-Load Sequence 1
  ,                                       !- Zone Equipment Sequential Cooling Fraction Schedule Name 1
  ,                                       !- Zone Equipment Sequential Heating Fraction Schedule Name 1
  {13930cdb-ac03-4b11-b723-aefa06ae7702}, !- Zone Equipment 2
  2,                                      !- Zone Equipment Cooling Sequence 2
  2,                                      !- Zone Equipment Heating or No-Load Sequence 2
  ,                                       !- Zone Equipment Sequential Cooling Fraction Schedule Name 2
  ;                                       !- Zone Equipment Sequential Heating Fraction Schedule Name 2

OS:Space,
  {765697f8-ba84-4245-aed9-b58eeaa4d4e8}, !- Handle
  living space,                           !- Name
  {5e9db052-2602-41ba-8b7f-381e9bfe5dce}, !- Space Type Name
  ,                                       !- Default Construction Set Name
  ,                                       !- Default Schedule Set Name
  ,                                       !- Direction of Relative North {deg}
  ,                                       !- X Origin {m}
  ,                                       !- Y Origin {m}
  ,                                       !- Z Origin {m}
  ,                                       !- Building Story Name
  {6bb875e4-41cd-4790-8105-4ca854053379}, !- Thermal Zone Name
  ,                                       !- Part of Total Floor Area
  ,                                       !- Design Specification Outdoor Air Object Name
  {135ba446-a1a5-4e3b-a83e-aa55c0853830}; !- Building Unit Name

OS:Surface,
  {b5ebe956-404b-4d29-91f3-e1ce3dd8ab4e}, !- Handle
  Surface 1,                              !- Name
  Floor,                                  !- Surface Type
  ,                                       !- Construction Name
  {765697f8-ba84-4245-aed9-b58eeaa4d4e8}, !- Space Name
  Foundation,                             !- Outside Boundary Condition
  ,                                       !- Outside Boundary Condition Object
  NoSun,                                  !- Sun Exposure
  NoWind,                                 !- Wind Exposure
  ,                                       !- View Factor to Ground
  ,                                       !- Number of Vertices
  0, -6.46578440716979, 0,                !- X,Y,Z Vertex 1 {m}
  0, 0, 0,                                !- X,Y,Z Vertex 2 {m}
  3.59210244842766, 0, 0,                 !- X,Y,Z Vertex 3 {m}
  3.59210244842766, -6.46578440716979, 0; !- X,Y,Z Vertex 4 {m}

OS:Surface,
  {e565d322-2bd8-4bcb-a5fa-96a94dc8cb0a}, !- Handle
  Surface 2,                              !- Name
  Wall,                                   !- Surface Type
  {8138e3a0-4dc2-43fb-be65-1d20944a93fc}, !- Construction Name
  {765697f8-ba84-4245-aed9-b58eeaa4d4e8}, !- Space Name
  Adiabatic,                              !- Outside Boundary Condition
  ,                                       !- Outside Boundary Condition Object
  NoSun,                                  !- Sun Exposure
  NoWind,                                 !- Wind Exposure
  ,                                       !- View Factor to Ground
  ,                                       !- Number of Vertices
  0, 0, 2.4384,                           !- X,Y,Z Vertex 1 {m}
  0, 0, 0,                                !- X,Y,Z Vertex 2 {m}
  0, -6.46578440716979, 0,                !- X,Y,Z Vertex 3 {m}
  0, -6.46578440716979, 2.4384;           !- X,Y,Z Vertex 4 {m}

OS:Surface,
  {d40f393b-7297-4988-b1c0-73a702c6ce22}, !- Handle
  Surface 3,                              !- Name
  Wall,                                   !- Surface Type
  ,                                       !- Construction Name
  {765697f8-ba84-4245-aed9-b58eeaa4d4e8}, !- Space Name
  Outdoors,                               !- Outside Boundary Condition
  ,                                       !- Outside Boundary Condition Object
  SunExposed,                             !- Sun Exposure
  WindExposed,                            !- Wind Exposure
  ,                                       !- View Factor to Ground
  ,                                       !- Number of Vertices
  3.59210244842766, 0, 2.4384,            !- X,Y,Z Vertex 1 {m}
  3.59210244842766, 0, 0,                 !- X,Y,Z Vertex 2 {m}
  0, 0, 0,                                !- X,Y,Z Vertex 3 {m}
  0, 0, 2.4384;                           !- X,Y,Z Vertex 4 {m}

OS:Surface,
  {8f735ddd-8ef5-4f7f-b5be-097c89e4ff86}, !- Handle
  Surface 4,                              !- Name
  Wall,                                   !- Surface Type
  ,                                       !- Construction Name
  {765697f8-ba84-4245-aed9-b58eeaa4d4e8}, !- Space Name
  Surface,                                !- Outside Boundary Condition
  {5c837cb7-6db9-4267-a51d-d299dcbc767e}, !- Outside Boundary Condition Object
  NoSun,                                  !- Sun Exposure
  NoWind,                                 !- Wind Exposure
  ,                                       !- View Factor to Ground
  ,                                       !- Number of Vertices
  3.59210244842766, -6.46578440716979, 2.4384, !- X,Y,Z Vertex 1 {m}
  3.59210244842766, -6.46578440716979, 0, !- X,Y,Z Vertex 2 {m}
  3.59210244842766, 0, 0,                 !- X,Y,Z Vertex 3 {m}
  3.59210244842766, 0, 2.4384;            !- X,Y,Z Vertex 4 {m}

OS:Surface,
  {cdf5e0ef-2153-42f8-ba5e-2dada606d661}, !- Handle
  Surface 5,                              !- Name
  Wall,                                   !- Surface Type
  ,                                       !- Construction Name
  {765697f8-ba84-4245-aed9-b58eeaa4d4e8}, !- Space Name
  Outdoors,                               !- Outside Boundary Condition
  ,                                       !- Outside Boundary Condition Object
  SunExposed,                             !- Sun Exposure
  WindExposed,                            !- Wind Exposure
  ,                                       !- View Factor to Ground
  ,                                       !- Number of Vertices
  0, -6.46578440716979, 2.4384,           !- X,Y,Z Vertex 1 {m}
  0, -6.46578440716979, 0,                !- X,Y,Z Vertex 2 {m}
  3.59210244842766, -6.46578440716979, 0, !- X,Y,Z Vertex 3 {m}
  3.59210244842766, -6.46578440716979, 2.4384; !- X,Y,Z Vertex 4 {m}

OS:Surface,
  {2f564a34-261b-4ac0-9684-9358a63e4bd6}, !- Handle
  Surface 6,                              !- Name
  RoofCeiling,                            !- Surface Type
  ,                                       !- Construction Name
  {765697f8-ba84-4245-aed9-b58eeaa4d4e8}, !- Space Name
  Surface,                                !- Outside Boundary Condition
  {1615f850-ff49-4864-8696-d0a8e2007949}, !- Outside Boundary Condition Object
  NoSun,                                  !- Sun Exposure
  NoWind,                                 !- Wind Exposure
  ,                                       !- View Factor to Ground
  ,                                       !- Number of Vertices
  3.59210244842766, -6.46578440716979, 2.4384, !- X,Y,Z Vertex 1 {m}
  3.59210244842766, 0, 2.4384,            !- X,Y,Z Vertex 2 {m}
  0, 0, 2.4384,                           !- X,Y,Z Vertex 3 {m}
  0, -6.46578440716979, 2.4384;           !- X,Y,Z Vertex 4 {m}

OS:SpaceType,
  {5e9db052-2602-41ba-8b7f-381e9bfe5dce}, !- Handle
  Space Type 1,                           !- Name
  ,                                       !- Default Construction Set Name
  ,                                       !- Default Schedule Set Name
  ,                                       !- Group Rendering Name
  ,                                       !- Design Specification Outdoor Air Object Name
  ,                                       !- Standards Template
  ,                                       !- Standards Building Type
  living;                                 !- Standards Space Type

OS:Space,
  {3c51fab5-5334-4a0b-8049-d36b9f1c1ca4}, !- Handle
  living space|story 2,                   !- Name
  {5e9db052-2602-41ba-8b7f-381e9bfe5dce}, !- Space Type Name
  ,                                       !- Default Construction Set Name
  ,                                       !- Default Schedule Set Name
  -0,                                     !- Direction of Relative North {deg}
  0,                                      !- X Origin {m}
  0,                                      !- Y Origin {m}
  2.4384,                                 !- Z Origin {m}
  ,                                       !- Building Story Name
  {6bb875e4-41cd-4790-8105-4ca854053379}, !- Thermal Zone Name
  ,                                       !- Part of Total Floor Area
  ,                                       !- Design Specification Outdoor Air Object Name
  {135ba446-a1a5-4e3b-a83e-aa55c0853830}; !- Building Unit Name

OS:Surface,
  {27d02dc5-91a2-40f7-b52b-f87627973424}, !- Handle
  Surface 7,                              !- Name
  Wall,                                   !- Surface Type
  ,                                       !- Construction Name
  {3c51fab5-5334-4a0b-8049-d36b9f1c1ca4}, !- Space Name
  Outdoors,                               !- Outside Boundary Condition
  ,                                       !- Outside Boundary Condition Object
  SunExposed,                             !- Sun Exposure
  WindExposed,                            !- Wind Exposure
  ,                                       !- View Factor to Ground
  ,                                       !- Number of Vertices
  3.59210244842766, 0, 2.4384,            !- X,Y,Z Vertex 1 {m}
  3.59210244842766, 0, 0,                 !- X,Y,Z Vertex 2 {m}
  0, 0, 0,                                !- X,Y,Z Vertex 3 {m}
  0, 0, 2.4384;                           !- X,Y,Z Vertex 4 {m}

OS:Surface,
  {f2430d48-d792-48f1-b519-90009c2bd5b5}, !- Handle
  Surface 8,                              !- Name
  Wall,                                   !- Surface Type
  ,                                       !- Construction Name
  {3c51fab5-5334-4a0b-8049-d36b9f1c1ca4}, !- Space Name
  Outdoors,                               !- Outside Boundary Condition
  ,                                       !- Outside Boundary Condition Object
  SunExposed,                             !- Sun Exposure
  WindExposed,                            !- Wind Exposure
  ,                                       !- View Factor to Ground
  ,                                       !- Number of Vertices
  0, -6.46578440716979, 2.4384,           !- X,Y,Z Vertex 1 {m}
  0, -6.46578440716979, 0,                !- X,Y,Z Vertex 2 {m}
  3.59210244842766, -6.46578440716979, 0, !- X,Y,Z Vertex 3 {m}
  3.59210244842766, -6.46578440716979, 2.4384; !- X,Y,Z Vertex 4 {m}

OS:Surface,
  {7c81b943-cde2-46ca-a38d-9aa42df27de1}, !- Handle
  Surface 9,                              !- Name
  RoofCeiling,                            !- Surface Type
  ,                                       !- Construction Name
  {3c51fab5-5334-4a0b-8049-d36b9f1c1ca4}, !- Space Name
  Surface,                                !- Outside Boundary Condition
  {72e942f5-557c-410f-9de2-06a7e7dbab3d}, !- Outside Boundary Condition Object
  NoSun,                                  !- Sun Exposure
  NoWind,                                 !- Wind Exposure
  ,                                       !- View Factor to Ground
  ,                                       !- Number of Vertices
  3.59210244842766, -6.46578440716979, 2.4384, !- X,Y,Z Vertex 1 {m}
  3.59210244842766, 0, 2.4384,            !- X,Y,Z Vertex 2 {m}
  0, 0, 2.4384,                           !- X,Y,Z Vertex 3 {m}
  0, -6.46578440716979, 2.4384;           !- X,Y,Z Vertex 4 {m}

OS:Surface,
  {afdbe37d-9baa-4c29-a415-549ebc3ebe89}, !- Handle
  Surface 10,                             !- Name
  Wall,                                   !- Surface Type
  {8138e3a0-4dc2-43fb-be65-1d20944a93fc}, !- Construction Name
  {3c51fab5-5334-4a0b-8049-d36b9f1c1ca4}, !- Space Name
  Adiabatic,                              !- Outside Boundary Condition
  ,                                       !- Outside Boundary Condition Object
  NoSun,                                  !- Sun Exposure
  NoWind,                                 !- Wind Exposure
  ,                                       !- View Factor to Ground
  ,                                       !- Number of Vertices
  0, 0, 2.4384,                           !- X,Y,Z Vertex 1 {m}
  0, 0, 0,                                !- X,Y,Z Vertex 2 {m}
  0, -6.46578440716979, 0,                !- X,Y,Z Vertex 3 {m}
  0, -6.46578440716979, 2.4384;           !- X,Y,Z Vertex 4 {m}

OS:Surface,
  {8483b53f-bbcb-4596-ac5b-8ce20f1db0e8}, !- Handle
  Surface 11,                             !- Name
  Wall,                                   !- Surface Type
  ,                                       !- Construction Name
  {3c51fab5-5334-4a0b-8049-d36b9f1c1ca4}, !- Space Name
  Surface,                                !- Outside Boundary Condition
  {57344dfc-efae-432f-96a9-4bde802504eb}, !- Outside Boundary Condition Object
  NoSun,                                  !- Sun Exposure
  NoWind,                                 !- Wind Exposure
  ,                                       !- View Factor to Ground
  ,                                       !- Number of Vertices
  3.59210244842766, -6.46578440716979, 2.4384, !- X,Y,Z Vertex 1 {m}
  3.59210244842766, -6.46578440716979, 0, !- X,Y,Z Vertex 2 {m}
  3.59210244842766, 0, 0,                 !- X,Y,Z Vertex 3 {m}
  3.59210244842766, 0, 2.4384;            !- X,Y,Z Vertex 4 {m}

OS:Surface,
  {1615f850-ff49-4864-8696-d0a8e2007949}, !- Handle
  Surface 12,                             !- Name
  Floor,                                  !- Surface Type
  ,                                       !- Construction Name
  {3c51fab5-5334-4a0b-8049-d36b9f1c1ca4}, !- Space Name
  Surface,                                !- Outside Boundary Condition
  {2f564a34-261b-4ac0-9684-9358a63e4bd6}, !- Outside Boundary Condition Object
  NoSun,                                  !- Sun Exposure
  NoWind,                                 !- Wind Exposure
  ,                                       !- View Factor to Ground
  ,                                       !- Number of Vertices
  0, -6.46578440716979, 0,                !- X,Y,Z Vertex 1 {m}
  0, 0, 0,                                !- X,Y,Z Vertex 2 {m}
  3.59210244842766, 0, 0,                 !- X,Y,Z Vertex 3 {m}
  3.59210244842766, -6.46578440716979, 0; !- X,Y,Z Vertex 4 {m}

OS:ThermalZone,
  {adfa7159-a238-45d1-9f0b-e9b45f16d817}, !- Handle
  living zone|unit 2,                     !- Name
  ,                                       !- Multiplier
  ,                                       !- Ceiling Height {m}
  ,                                       !- Volume {m3}
  ,                                       !- Floor Area {m2}
  ,                                       !- Zone Inside Convection Algorithm
  ,                                       !- Zone Outside Convection Algorithm
  ,                                       !- Zone Conditioning Equipment List Name
  {c21fb59f-496c-463c-912c-9f8b54460f84}, !- Zone Air Inlet Port List
  {e0091dc2-868e-4e1a-b063-939f7b4b6cbd}, !- Zone Air Exhaust Port List
  {be9ef855-8829-4897-89ec-e9d318761a21}, !- Zone Air Node Name
  {4f5480cb-13c2-4e0b-be3d-c005b2a97b37}, !- Zone Return Air Port List
  ,                                       !- Primary Daylighting Control Name
  ,                                       !- Fraction of Zone Controlled by Primary Daylighting Control
  ,                                       !- Secondary Daylighting Control Name
  ,                                       !- Fraction of Zone Controlled by Secondary Daylighting Control
  ,                                       !- Illuminance Map Name
  ,                                       !- Group Rendering Name
  {9e95e9ea-a85f-4124-aa46-520f5c40f305}, !- Thermostat Name
  No;                                     !- Use Ideal Air Loads

OS:Node,
  {c45614c5-5bd8-4be0-a1b4-68e424e62d2c}, !- Handle
  Node 2,                                 !- Name
  {be9ef855-8829-4897-89ec-e9d318761a21}, !- Inlet Port
  ;                                       !- Outlet Port

OS:Connection,
  {be9ef855-8829-4897-89ec-e9d318761a21}, !- Handle
  {a9cc3f80-4580-4dd7-9339-ffb01ac1cd7b}, !- Name
  {adfa7159-a238-45d1-9f0b-e9b45f16d817}, !- Source Object
  11,                                     !- Outlet Port
  {c45614c5-5bd8-4be0-a1b4-68e424e62d2c}, !- Target Object
  2;                                      !- Inlet Port

OS:PortList,
  {c21fb59f-496c-463c-912c-9f8b54460f84}, !- Handle
  {49a84dfe-248b-4e56-a9c9-af7a25e2f194}, !- Name
  {adfa7159-a238-45d1-9f0b-e9b45f16d817}, !- HVAC Component
  {6915861d-b7be-4b45-833f-d1d12d7a606a}, !- Port 1
  {0d58bb33-1023-4902-b274-f591d2036f24}; !- Port 2

OS:PortList,
  {e0091dc2-868e-4e1a-b063-939f7b4b6cbd}, !- Handle
  {15253f72-0fe4-4abe-8e94-973178db727b}, !- Name
  {adfa7159-a238-45d1-9f0b-e9b45f16d817}; !- HVAC Component

OS:PortList,
  {4f5480cb-13c2-4e0b-be3d-c005b2a97b37}, !- Handle
  {b6bb7d62-84ae-4b0a-8fe2-5d4ba862d349}, !- Name
  {adfa7159-a238-45d1-9f0b-e9b45f16d817}, !- HVAC Component
  {8cb113fe-8d4a-4b46-899a-32ef1c361885}, !- Port 1
  {850f3beb-0f45-4043-8107-1475fd68cff1}; !- Port 2

OS:Sizing:Zone,
  {a5d7384b-d107-46f0-81b7-abc6ef5dd9a6}, !- Handle
  {adfa7159-a238-45d1-9f0b-e9b45f16d817}, !- Zone or ZoneList Name
  SupplyAirTemperature,                   !- Zone Cooling Design Supply Air Temperature Input Method
  14,                                     !- Zone Cooling Design Supply Air Temperature {C}
  11.11,                                  !- Zone Cooling Design Supply Air Temperature Difference {deltaC}
  SupplyAirTemperature,                   !- Zone Heating Design Supply Air Temperature Input Method
  40,                                     !- Zone Heating Design Supply Air Temperature {C}
  11.11,                                  !- Zone Heating Design Supply Air Temperature Difference {deltaC}
  0.0085,                                 !- Zone Cooling Design Supply Air Humidity Ratio {kg-H2O/kg-air}
  0.008,                                  !- Zone Heating Design Supply Air Humidity Ratio {kg-H2O/kg-air}
  ,                                       !- Zone Heating Sizing Factor
  ,                                       !- Zone Cooling Sizing Factor
  DesignDay,                              !- Cooling Design Air Flow Method
  ,                                       !- Cooling Design Air Flow Rate {m3/s}
  ,                                       !- Cooling Minimum Air Flow per Zone Floor Area {m3/s-m2}
  ,                                       !- Cooling Minimum Air Flow {m3/s}
  ,                                       !- Cooling Minimum Air Flow Fraction
  DesignDay,                              !- Heating Design Air Flow Method
  ,                                       !- Heating Design Air Flow Rate {m3/s}
  ,                                       !- Heating Maximum Air Flow per Zone Floor Area {m3/s-m2}
  ,                                       !- Heating Maximum Air Flow {m3/s}
  ,                                       !- Heating Maximum Air Flow Fraction
  ,                                       !- Design Zone Air Distribution Effectiveness in Cooling Mode
  ,                                       !- Design Zone Air Distribution Effectiveness in Heating Mode
  No,                                     !- Account for Dedicated Outdoor Air System
  NeutralSupplyAir,                       !- Dedicated Outdoor Air System Control Strategy
  autosize,                               !- Dedicated Outdoor Air Low Setpoint Temperature for Design {C}
  autosize;                               !- Dedicated Outdoor Air High Setpoint Temperature for Design {C}

OS:ZoneHVAC:EquipmentList,
  {fdc76959-8007-4256-87d0-780c4ca7b2e9}, !- Handle
  Zone HVAC Equipment List 2,             !- Name
  {adfa7159-a238-45d1-9f0b-e9b45f16d817}, !- Thermal Zone
  SequentialLoad,                         !- Load Distribution Scheme
  {446028d6-0bb1-4599-ab5e-91199ed13e54}, !- Zone Equipment 1
  1,                                      !- Zone Equipment Cooling Sequence 1
  1,                                      !- Zone Equipment Heating or No-Load Sequence 1
  ,                                       !- Zone Equipment Sequential Cooling Fraction Schedule Name 1
  ,                                       !- Zone Equipment Sequential Heating Fraction Schedule Name 1
  {601cace4-de4c-4578-84b2-10393953b840}, !- Zone Equipment 2
  2,                                      !- Zone Equipment Cooling Sequence 2
  2,                                      !- Zone Equipment Heating or No-Load Sequence 2
  ,                                       !- Zone Equipment Sequential Cooling Fraction Schedule Name 2
  ;                                       !- Zone Equipment Sequential Heating Fraction Schedule Name 2

OS:Space,
  {04dbd5d5-fad7-4f2e-bb13-627b4cb4d415}, !- Handle
  living space|unit 2|story 1,            !- Name
  {5e9db052-2602-41ba-8b7f-381e9bfe5dce}, !- Space Type Name
  ,                                       !- Default Construction Set Name
  ,                                       !- Default Schedule Set Name
  -0,                                     !- Direction of Relative North {deg}
  0,                                      !- X Origin {m}