!- NOTE: Auto-generated from /test/osw_files/SFA_4units_1story_SL_UA_Denver_Windows_Doors.osw

OS:Version,
  {fe253333-ea65-4f1a-8441-de4503906a6d}, !- Handle
  2.9.0;                                  !- Version Identifier

OS:SimulationControl,
  {bc2a4689-1f8f-4da7-875b-17e5cde722d8}, !- Handle
  ,                                       !- Do Zone Sizing Calculation
  ,                                       !- Do System Sizing Calculation
  ,                                       !- Do Plant Sizing Calculation
  No;                                     !- Run Simulation for Sizing Periods

OS:Timestep,
  {3b392d3f-f21a-4421-b0c6-90bb64d1c2d3}, !- Handle
  6;                                      !- Number of Timesteps per Hour

OS:ShadowCalculation,
  {be9917bf-e6f3-418a-af64-1abec596d7bb}, !- Handle
  20,                                     !- Calculation Frequency
  200;                                    !- Maximum Figures in Shadow Overlap Calculations

OS:SurfaceConvectionAlgorithm:Outside,
  {981fa927-18f2-4a91-9b06-9c0387c2a6fb}, !- Handle
  DOE-2;                                  !- Algorithm

OS:SurfaceConvectionAlgorithm:Inside,
  {25f3da57-aebf-4a35-8dfd-c0ac5ab26846}, !- Handle
  TARP;                                   !- Algorithm

OS:ZoneCapacitanceMultiplier:ResearchSpecial,
  {578225e6-ae31-4f01-8a2d-275ba48bbce2}, !- Handle
  ,                                       !- Temperature Capacity Multiplier
  15,                                     !- Humidity Capacity Multiplier
  ;                                       !- Carbon Dioxide Capacity Multiplier

OS:RunPeriod,
  {6e9ac768-ee0c-4dbc-9544-ef7b71d916b0}, !- Handle
  Run Period 1,                           !- Name
  1,                                      !- Begin Month
  1,                                      !- Begin Day of Month
  12,                                     !- End Month
  31,                                     !- End Day of Month
  ,                                       !- Use Weather File Holidays and Special Days
  ,                                       !- Use Weather File Daylight Saving Period
  ,                                       !- Apply Weekend Holiday Rule
  ,                                       !- Use Weather File Rain Indicators
  ,                                       !- Use Weather File Snow Indicators
  ;                                       !- Number of Times Runperiod to be Repeated

OS:YearDescription,
  {cd27157f-29b8-475c-961e-4ac88f9470b1}, !- Handle
  2007,                                   !- Calendar Year
  ,                                       !- Day of Week for Start Day
  ;                                       !- Is Leap Year

OS:ThermalZone,
  {151d531e-a63a-451b-8265-42f41a65c2d6}, !- Handle
  living zone,                            !- Name
  ,                                       !- Multiplier
  ,                                       !- Ceiling Height {m}
  ,                                       !- Volume {m3}
  ,                                       !- Floor Area {m2}
  ,                                       !- Zone Inside Convection Algorithm
  ,                                       !- Zone Outside Convection Algorithm
  ,                                       !- Zone Conditioning Equipment List Name
  {64237d78-f6ac-4156-b271-80e539e0e7d9}, !- Zone Air Inlet Port List
  {09b3ef95-b174-4ba0-bb95-d6cc477e0ba3}, !- Zone Air Exhaust Port List
  {a95c693a-251e-47a9-a638-83671ad41854}, !- Zone Air Node Name
  {82e2ab41-4949-4625-a5fb-42e2c7d947d7}, !- Zone Return Air Port List
  ,                                       !- Primary Daylighting Control Name
  ,                                       !- Fraction of Zone Controlled by Primary Daylighting Control
  ,                                       !- Secondary Daylighting Control Name
  ,                                       !- Fraction of Zone Controlled by Secondary Daylighting Control
  ,                                       !- Illuminance Map Name
  ,                                       !- Group Rendering Name
  ,                                       !- Thermostat Name
  No;                                     !- Use Ideal Air Loads

OS:Node,
  {0760d4eb-9b04-40fe-9c19-5050282e08e4}, !- Handle
  Node 1,                                 !- Name
  {a95c693a-251e-47a9-a638-83671ad41854}, !- Inlet Port
  ;                                       !- Outlet Port

OS:Connection,
  {a95c693a-251e-47a9-a638-83671ad41854}, !- Handle
  {b7b89128-865c-4fcf-860a-2954d5e9fdb7}, !- Name
  {151d531e-a63a-451b-8265-42f41a65c2d6}, !- Source Object
  11,                                     !- Outlet Port
  {0760d4eb-9b04-40fe-9c19-5050282e08e4}, !- Target Object
  2;                                      !- Inlet Port

OS:PortList,
  {64237d78-f6ac-4156-b271-80e539e0e7d9}, !- Handle
  {7024045e-f9e5-4dc8-b503-7a5c7d83348d}, !- Name
  {151d531e-a63a-451b-8265-42f41a65c2d6}; !- HVAC Component

OS:PortList,
  {09b3ef95-b174-4ba0-bb95-d6cc477e0ba3}, !- Handle
  {3735c030-28c3-46f8-b807-a2ffc6aa7b7f}, !- Name
  {151d531e-a63a-451b-8265-42f41a65c2d6}; !- HVAC Component

OS:PortList,
  {82e2ab41-4949-4625-a5fb-42e2c7d947d7}, !- Handle
  {e33e7f15-67a2-4a53-8412-4ec26a6325db}, !- Name
  {151d531e-a63a-451b-8265-42f41a65c2d6}; !- HVAC Component

OS:Sizing:Zone,
  {4d0f7b63-7f7e-4446-bd9f-3a80b23e2227}, !- Handle
  {151d531e-a63a-451b-8265-42f41a65c2d6}, !- Zone or ZoneList Name
  SupplyAirTemperature,                   !- Zone Cooling Design Supply Air Temperature Input Method
  14,                                     !- Zone Cooling Design Supply Air Temperature {C}
  11.11,                                  !- Zone Cooling Design Supply Air Temperature Difference {deltaC}
  SupplyAirTemperature,                   !- Zone Heating Design Supply Air Temperature Input Method
  40,                                     !- Zone Heating Design Supply Air Temperature {C}
  11.11,                                  !- Zone Heating Design Supply Air Temperature Difference {deltaC}
  0.0085,                                 !- Zone Cooling Design Supply Air Humidity Ratio {kg-H2O/kg-air}
  0.008,                                  !- Zone Heating Design Supply Air Humidity Ratio {kg-H2O/kg-air}
  ,                                       !- Zone Heating Sizing Factor
  ,                                       !- Zone Cooling Sizing Factor
  DesignDay,                              !- Cooling Design Air Flow Method
  ,                                       !- Cooling Design Air Flow Rate {m3/s}
  ,                                       !- Cooling Minimum Air Flow per Zone Floor Area {m3/s-m2}
  ,                                       !- Cooling Minimum Air Flow {m3/s}
  ,                                       !- Cooling Minimum Air Flow Fraction
  DesignDay,                              !- Heating Design Air Flow Method
  ,                                       !- Heating Design Air Flow Rate {m3/s}
  ,                                       !- Heating Maximum Air Flow per Zone Floor Area {m3/s-m2}
  ,                                       !- Heating Maximum Air Flow {m3/s}
  ,                                       !- Heating Maximum Air Flow Fraction
  ,                                       !- Design Zone Air Distribution Effectiveness in Cooling Mode
  ,                                       !- Design Zone Air Distribution Effectiveness in Heating Mode
  No,                                     !- Account for Dedicated Outdoor Air System
  NeutralSupplyAir,                       !- Dedicated Outdoor Air System Control Strategy
  autosize,                               !- Dedicated Outdoor Air Low Setpoint Temperature for Design {C}
  autosize;                               !- Dedicated Outdoor Air High Setpoint Temperature for Design {C}

OS:ZoneHVAC:EquipmentList,
  {1a4fb347-94dd-4282-9e8e-e4be6f892c79}, !- Handle
  Zone HVAC Equipment List 1,             !- Name
  {151d531e-a63a-451b-8265-42f41a65c2d6}; !- Thermal Zone

OS:Space,
  {354cf2a5-d7fc-48a8-a2ae-cf8d8d5c092e}, !- Handle
  living space,                           !- Name
  {90466353-927e-4387-a67a-6207d414ba69}, !- Space Type Name
  ,                                       !- Default Construction Set Name
  ,                                       !- Default Schedule Set Name
  ,                                       !- Direction of Relative North {deg}
  ,                                       !- X Origin {m}
  ,                                       !- Y Origin {m}
  ,                                       !- Z Origin {m}
  ,                                       !- Building Story Name
  {151d531e-a63a-451b-8265-42f41a65c2d6}, !- Thermal Zone Name
  ,                                       !- Part of Total Floor Area
  ,                                       !- Design Specification Outdoor Air Object Name
  {cae953b1-eee6-4dd9-972f-8a67411eaec5}; !- Building Unit Name

OS:Surface,
  {55c23d93-0ce9-4365-9dcc-df071f85e7de}, !- Handle
  Surface 1,                              !- Name
  Floor,                                  !- Surface Type
  ,                                       !- Construction Name
  {354cf2a5-d7fc-48a8-a2ae-cf8d8d5c092e}, !- Space Name
  Foundation,                             !- Outside Boundary Condition
  ,                                       !- Outside Boundary Condition Object
  NoSun,                                  !- Sun Exposure
  NoWind,                                 !- Wind Exposure
  ,                                       !- View Factor to Ground
  ,                                       !- Number of Vertices
  0, -12.9315688143396, 0,                !- X,Y,Z Vertex 1 {m}
  0, 0, 0,                                !- X,Y,Z Vertex 2 {m}
  6.46578440716979, 0, 0,                 !- X,Y,Z Vertex 3 {m}
  6.46578440716979, -12.9315688143396, 0; !- X,Y,Z Vertex 4 {m}

OS:Surface,
  {dd9df0a9-ee16-4310-a206-87e51606cd3e}, !- Handle
  Surface 2,                              !- Name
  Wall,                                   !- Surface Type
  ,                                       !- Construction Name
  {354cf2a5-d7fc-48a8-a2ae-cf8d8d5c092e}, !- Space Name
  Outdoors,                               !- Outside Boundary Condition
  ,                                       !- Outside Boundary Condition Object
  SunExposed,                             !- Sun Exposure
  WindExposed,                            !- Wind Exposure
  ,                                       !- View Factor to Ground
  ,                                       !- Number of Vertices
  0, 0, 2.4384,                           !- X,Y,Z Vertex 1 {m}
  0, 0, 0,                                !- X,Y,Z Vertex 2 {m}
  0, -12.9315688143396, 0,                !- X,Y,Z Vertex 3 {m}
  0, -12.9315688143396, 2.4384;           !- X,Y,Z Vertex 4 {m}

OS:Surface,
  {74a0b420-6c79-47f9-bbad-8b733c9026cf}, !- Handle
  Surface 3,                              !- Name
  Wall,                                   !- Surface Type
  ,                                       !- Construction Name
  {354cf2a5-d7fc-48a8-a2ae-cf8d8d5c092e}, !- Space Name
  Outdoors,                               !- Outside Boundary Condition
  ,                                       !- Outside Boundary Condition Object
  SunExposed,                             !- Sun Exposure
  WindExposed,                            !- Wind Exposure
  ,                                       !- View Factor to Ground
  ,                                       !- Number of Vertices
  6.46578440716979, 0, 2.4384,            !- X,Y,Z Vertex 1 {m}
  6.46578440716979, 0, 0,                 !- X,Y,Z Vertex 2 {m}
  0, 0, 0,                                !- X,Y,Z Vertex 3 {m}
  0, 0, 2.4384;                           !- X,Y,Z Vertex 4 {m}

OS:Surface,
  {3235719d-eeb7-45dc-8f3a-d8d8d7c886d3}, !- Handle
  Surface 4,                              !- Name
  Wall,                                   !- Surface Type
  ,                                       !- Construction Name
  {354cf2a5-d7fc-48a8-a2ae-cf8d8d5c092e}, !- Space Name
  Adiabatic,                              !- Outside Boundary Condition
  ,                                       !- Outside Boundary Condition Object
  NoSun,                                  !- Sun Exposure
  NoWind,                                 !- Wind Exposure
  ,                                       !- View Factor to Ground
  ,                                       !- Number of Vertices
  6.46578440716979, -12.9315688143396, 2.4384, !- X,Y,Z Vertex 1 {m}
  6.46578440716979, -12.9315688143396, 0, !- X,Y,Z Vertex 2 {m}
  6.46578440716979, 0, 0,                 !- X,Y,Z Vertex 3 {m}
  6.46578440716979, 0, 2.4384;            !- X,Y,Z Vertex 4 {m}

OS:Surface,
  {77c2e516-fa47-4f9f-98ff-f7bd5b32deef}, !- Handle
  Surface 5,                              !- Name
  Wall,                                   !- Surface Type
  ,                                       !- Construction Name
  {354cf2a5-d7fc-48a8-a2ae-cf8d8d5c092e}, !- Space Name
  Outdoors,                               !- Outside Boundary Condition
  ,                                       !- Outside Boundary Condition Object
  SunExposed,                             !- Sun Exposure
  WindExposed,                            !- Wind Exposure
  ,                                       !- View Factor to Ground
  ,                                       !- Number of Vertices
  6.46578440716979, -12.9315688143396, 0, !- X,Y,Z Vertex 1 {m}
  6.46578440716979, -12.9315688143396, 2.4384, !- X,Y,Z Vertex 2 {m}
  1.04865714285714, -12.9315688143396, 2.4384, !- X,Y,Z Vertex 3 {m}
  1.04865714285714, -12.9315688143396, 0; !- X,Y,Z Vertex 4 {m}

OS:Surface,
  {c5237b11-261b-44a4-8732-f8a0e184afe5}, !- Handle
  Surface 6,                              !- Name
  RoofCeiling,                            !- Surface Type
  ,                                       !- Construction Name
  {354cf2a5-d7fc-48a8-a2ae-cf8d8d5c092e}, !- Space Name
  Surface,                                !- Outside Boundary Condition
  {0053dc74-6895-440c-b3a1-e21039aaddc4}, !- Outside Boundary Condition Object
  NoSun,                                  !- Sun Exposure
  NoWind,                                 !- Wind Exposure
  ,                                       !- View Factor to Ground
  ,                                       !- Number of Vertices
  6.46578440716979, -12.9315688143396, 2.4384, !- X,Y,Z Vertex 1 {m}
  6.46578440716979, 0, 2.4384,            !- X,Y,Z Vertex 2 {m}
  0, 0, 2.4384,                           !- X,Y,Z Vertex 3 {m}
  0, -12.9315688143396, 2.4384;           !- X,Y,Z Vertex 4 {m}

OS:SpaceType,
  {90466353-927e-4387-a67a-6207d414ba69}, !- Handle
  Space Type 1,                           !- Name
  ,                                       !- Default Construction Set Name
  ,                                       !- Default Schedule Set Name
  ,                                       !- Group Rendering Name
  ,                                       !- Design Specification Outdoor Air Object Name
  ,                                       !- Standards Template
  ,                                       !- Standards Building Type
  living;                                 !- Standards Space Type

OS:Surface,
  {0053dc74-6895-440c-b3a1-e21039aaddc4}, !- Handle
  Surface 7,                              !- Name
  Floor,                                  !- Surface Type
  ,                                       !- Construction Name
  {aa9244c4-8f1b-4ce1-abc2-d83e022f79d8}, !- Space Name
  Surface,                                !- Outside Boundary Condition
  {c5237b11-261b-44a4-8732-f8a0e184afe5}, !- Outside Boundary Condition Object
  NoSun,                                  !- Sun Exposure
  NoWind,                                 !- Wind Exposure
  ,                                       !- View Factor to Ground
  ,                                       !- Number of Vertices
  0, -12.9315688143396, 2.4384,           !- X,Y,Z Vertex 1 {m}
  0, 0, 2.4384,                           !- X,Y,Z Vertex 2 {m}
  6.46578440716979, 0, 2.4384,            !- X,Y,Z Vertex 3 {m}
  6.46578440716979, -12.9315688143396, 2.4384; !- X,Y,Z Vertex 4 {m}

OS:Surface,
  {e5735ab0-3589-4050-a3be-1456d1af7d3c}, !- Handle
  Surface 8,                              !- Name
  RoofCeiling,                            !- Surface Type
  ,                                       !- Construction Name
  {aa9244c4-8f1b-4ce1-abc2-d83e022f79d8}, !- Space Name
  Outdoors,                               !- Outside Boundary Condition
  ,                                       !- Outside Boundary Condition Object
  SunExposed,                             !- Sun Exposure
  WindExposed,                            !- Wind Exposure
  ,                                       !- View Factor to Ground
  ,                                       !- Number of Vertices
  0, -6.46578440716979, 5.6712922035849,  !- X,Y,Z Vertex 1 {m}
  6.46578440716979, -6.46578440716979, 5.6712922035849, !- X,Y,Z Vertex 2 {m}
  6.46578440716979, 0, 2.4384,            !- X,Y,Z Vertex 3 {m}
  0, 0, 2.4384;                           !- X,Y,Z Vertex 4 {m}

OS:Surface,
  {4b6162ae-5714-4ced-83d4-62ff1ef3ff35}, !- Handle
  Surface 9,                              !- Name
  RoofCeiling,                            !- Surface Type
  ,                                       !- Construction Name
  {aa9244c4-8f1b-4ce1-abc2-d83e022f79d8}, !- Space Name
  Outdoors,                               !- Outside Boundary Condition
  ,                                       !- Outside Boundary Condition Object
  SunExposed,                             !- Sun Exposure
  WindExposed,                            !- Wind Exposure
  ,                                       !- View Factor to Ground
  ,                                       !- Number of Vertices
  6.46578440716979, -6.46578440716979, 5.6712922035849, !- X,Y,Z Vertex 1 {m}
  0, -6.46578440716979, 5.6712922035849,  !- X,Y,Z Vertex 2 {m}
  0, -12.9315688143396, 2.4384,           !- X,Y,Z Vertex 3 {m}
  6.46578440716979, -12.9315688143396, 2.4384; !- X,Y,Z Vertex 4 {m}

OS:Surface,
  {a78ab3c1-dc32-4bc5-83f8-a7c6a1e6c62f}, !- Handle
  Surface 10,                             !- Name
  Wall,                                   !- Surface Type
  ,                                       !- Construction Name
  {aa9244c4-8f1b-4ce1-abc2-d83e022f79d8}, !- Space Name
  Outdoors,                               !- Outside Boundary Condition
  ,                                       !- Outside Boundary Condition Object
  SunExposed,                             !- Sun Exposure
  WindExposed,                            !- Wind Exposure
  ,                                       !- View Factor to Ground
  ,                                       !- Number of Vertices
  0, -6.46578440716979, 5.6712922035849,  !- X,Y,Z Vertex 1 {m}
  0, 0, 2.4384,                           !- X,Y,Z Vertex 2 {m}
  0, -12.9315688143396, 2.4384;           !- X,Y,Z Vertex 3 {m}

OS:Surface,
  {e6604bbb-1b47-431c-819e-98126ce7fd4b}, !- Handle
  Surface 11,                             !- Name
  Wall,                                   !- Surface Type
  ,                                       !- Construction Name
  {aa9244c4-8f1b-4ce1-abc2-d83e022f79d8}, !- Space Name
  Adiabatic,                              !- Outside Boundary Condition
  ,                                       !- Outside Boundary Condition Object
  NoSun,                                  !- Sun Exposure
  NoWind,                                 !- Wind Exposure
  ,                                       !- View Factor to Ground
  ,                                       !- Number of Vertices
  6.46578440716979, -6.46578440716979, 5.6712922035849, !- X,Y,Z Vertex 1 {m}
  6.46578440716979, -12.9315688143396, 2.4384, !- X,Y,Z Vertex 2 {m}
  6.46578440716979, 0, 2.4384;            !- X,Y,Z Vertex 3 {m}

OS:Space,
  {aa9244c4-8f1b-4ce1-abc2-d83e022f79d8}, !- Handle
  unfinished attic space,                 !- Name
  {5f0f20b2-da09-4c49-ad16-bb00b7982f5d}, !- Space Type Name
  ,                                       !- Default Construction Set Name
  ,                                       !- Default Schedule Set Name
  ,                                       !- Direction of Relative North {deg}
  ,                                       !- X Origin {m}
  ,                                       !- Y Origin {m}
  ,                                       !- Z Origin {m}
  ,                                       !- Building Story Name
  {5d21c6fc-dc16-4686-957d-b339e4fdf583}; !- Thermal Zone Name

OS:ThermalZone,
  {5d21c6fc-dc16-4686-957d-b339e4fdf583}, !- Handle
  unfinished attic zone,                  !- Name
  ,                                       !- Multiplier
  ,                                       !- Ceiling Height {m}
  ,                                       !- Volume {m3}
  ,                                       !- Floor Area {m2}
  ,                                       !- Zone Inside Convection Algorithm
  ,                                       !- Zone Outside Convection Algorithm
  ,                                       !- Zone Conditioning Equipment List Name
  {23f1dc88-665a-42a4-b898-b6b1349b0992}, !- Zone Air Inlet Port List
  {79499a76-2173-499b-951e-2c54b5439ee4}, !- Zone Air Exhaust Port List
  {baaf5a98-19ea-4d69-a0ca-17c29d1b1d05}, !- Zone Air Node Name
  {a77e4980-9b71-49a4-b5c3-f1b64a565213}, !- Zone Return Air Port List
  ,                                       !- Primary Daylighting Control Name
  ,                                       !- Fraction of Zone Controlled by Primary Daylighting Control
  ,                                       !- Secondary Daylighting Control Name
  ,                                       !- Fraction of Zone Controlled by Secondary Daylighting Control
  ,                                       !- Illuminance Map Name
  ,                                       !- Group Rendering Name
  ,                                       !- Thermostat Name
  No;                                     !- Use Ideal Air Loads

OS:Node,
  {cf156019-fc24-4b0d-b400-d0dbc291a487}, !- Handle
  Node 2,                                 !- Name
  {baaf5a98-19ea-4d69-a0ca-17c29d1b1d05}, !- Inlet Port
  ;                                       !- Outlet Port

OS:Connection,
  {baaf5a98-19ea-4d69-a0ca-17c29d1b1d05}, !- Handle
  {2c749b6f-628e-4ccb-a2af-370f6eb460ea}, !- Name
  {5d21c6fc-dc16-4686-957d-b339e4fdf583}, !- Source Object
  11,                                     !- Outlet Port
  {cf156019-fc24-4b0d-b400-d0dbc291a487}, !- Target Object
  2;                                      !- Inlet Port

OS:PortList,
  {23f1dc88-665a-42a4-b898-b6b1349b0992}, !- Handle
  {cfbefa7a-ba78-421e-9433-9960c5dd7128}, !- Name
  {5d21c6fc-dc16-4686-957d-b339e4fdf583}; !- HVAC Component

OS:PortList,
  {79499a76-2173-499b-951e-2c54b5439ee4}, !- Handle
  {21af2962-e334-4dc3-81ab-54b3b4676371}, !- Name
  {5d21c6fc-dc16-4686-957d-b339e4fdf583}; !- HVAC Component

OS:PortList,
  {a77e4980-9b71-49a4-b5c3-f1b64a565213}, !- Handle
  {e97bfde9-a1f8-4bcb-91b9-b156f5d5181d}, !- Name
  {5d21c6fc-dc16-4686-957d-b339e4fdf583}; !- HVAC Component

OS:Sizing:Zone,
  {7df4caab-6823-471a-86fe-e066720b3191}, !- Handle
  {5d21c6fc-dc16-4686-957d-b339e4fdf583}, !- Zone or ZoneList Name
  SupplyAirTemperature,                   !- Zone Cooling Design Supply Air Temperature Input Method
  14,                                     !- Zone Cooling Design Supply Air Temperature {C}
  11.11,                                  !- Zone Cooling Design Supply Air Temperature Difference {deltaC}
  SupplyAirTemperature,                   !- Zone Heating Design Supply Air Temperature Input Method
  40,                                     !- Zone Heating Design Supply Air Temperature {C}
  11.11,                                  !- Zone Heating Design Supply Air Temperature Difference {deltaC}
  0.0085,                                 !- Zone Cooling Design Supply Air Humidity Ratio {kg-H2O/kg-air}
  0.008,                                  !- Zone Heating Design Supply Air Humidity Ratio {kg-H2O/kg-air}
  ,                                       !- Zone Heating Sizing Factor
  ,                                       !- Zone Cooling Sizing Factor
  DesignDay,                              !- Cooling Design Air Flow Method
  ,                                       !- Cooling Design Air Flow Rate {m3/s}
  ,                                       !- Cooling Minimum Air Flow per Zone Floor Area {m3/s-m2}
  ,                                       !- Cooling Minimum Air Flow {m3/s}
  ,                                       !- Cooling Minimum Air Flow Fraction
  DesignDay,                              !- Heating Design Air Flow Method
  ,                                       !- Heating Design Air Flow Rate {m3/s}
  ,                                       !- Heating Maximum Air Flow per Zone Floor Area {m3/s-m2}
  ,                                       !- Heating Maximum Air Flow {m3/s}
  ,                                       !- Heating Maximum Air Flow Fraction
  ,                                       !- Design Zone Air Distribution Effectiveness in Cooling Mode
  ,                                       !- Design Zone Air Distribution Effectiveness in Heating Mode
  No,                                     !- Account for Dedicated Outdoor Air System
  NeutralSupplyAir,                       !- Dedicated Outdoor Air System Control Strategy
  autosize,                               !- Dedicated Outdoor Air Low Setpoint Temperature for Design {C}
  autosize;                               !- Dedicated Outdoor Air High Setpoint Temperature for Design {C}

OS:ZoneHVAC:EquipmentList,
  {41fc5a3f-f3e0-4d98-941f-7a933c65d761}, !- Handle
  Zone HVAC Equipment List 2,             !- Name
  {5d21c6fc-dc16-4686-957d-b339e4fdf583}; !- Thermal Zone

OS:SpaceType,
  {5f0f20b2-da09-4c49-ad16-bb00b7982f5d}, !- Handle
  Space Type 2,                           !- Name
  ,                                       !- Default Construction Set Name
  ,                                       !- Default Schedule Set Name
  ,                                       !- Group Rendering Name
  ,                                       !- Design Specification Outdoor Air Object Name
  ,                                       !- Standards Template
  ,                                       !- Standards Building Type
  unfinished attic;                       !- Standards Space Type

OS:BuildingUnit,
  {cae953b1-eee6-4dd9-972f-8a67411eaec5}, !- Handle
  unit 1,                                 !- Name
  ,                                       !- Rendering Color
  Residential;                            !- Building Unit Type

OS:Building,
  {4feea2da-b9f0-4d0e-be3b-3656e067f327}, !- Handle
  Building 1,                             !- Name
  ,                                       !- Building Sector Type
  0,                                      !- North Axis {deg}
  ,                                       !- Nominal Floor to Floor Height {m}
  ,                                       !- Space Type Name
  ,                                       !- Default Construction Set Name
  ,                                       !- Default Schedule Set Name
  1,                                      !- Standards Number of Stories
  1,                                      !- Standards Number of Above Ground Stories
  ,                                       !- Standards Template
  singlefamilyattached,                   !- Standards Building Type
  4;                                      !- Standards Number of Living Units

OS:AdditionalProperties,
  {535c4e63-29ca-4f36-b72d-8f4ae0eaa93a}, !- Handle
  {4feea2da-b9f0-4d0e-be3b-3656e067f327}, !- Object Name
  num_units,                              !- Feature Name 1
  Integer,                                !- Feature Data Type 1
  4,                                      !- Feature Value 1
  has_rear_units,                         !- Feature Name 2
  Boolean,                                !- Feature Data Type 2
  false,                                  !- Feature Value 2
  horz_location,                          !- Feature Name 3
  String,                                 !- Feature Data Type 3
  Left;                                   !- Feature Value 3

OS:AdditionalProperties,
  {6ba9e64c-834d-4a99-ad61-2edb086fdc99}, !- Handle
  {cae953b1-eee6-4dd9-972f-8a67411eaec5}, !- Object Name
  NumberOfBedrooms,                       !- Feature Name 1
  Integer,                                !- Feature Data Type 1
  3,                                      !- Feature Value 1
  NumberOfBathrooms,                      !- Feature Name 2
  Double,                                 !- Feature Data Type 2
  2,                                      !- Feature Value 2
  NumberOfOccupants,                      !- Feature Name 3
  Double,                                 !- Feature Data Type 3
  3.3900000000000001;                     !- Feature Value 3

OS:Schedule:Day,
  {f2e659c8-e138-405b-9a5f-66a6f9b37bba}, !- Handle
  Schedule Day 1,                         !- Name
  ,                                       !- Schedule Type Limits Name
  ,                                       !- Interpolate to Timestep
  24,                                     !- Hour 1
  0,                                      !- Minute 1
  0;                                      !- Value Until Time 1

OS:Schedule:Day,
  {ed98052f-4e46-4d02-bed7-bb29470fa5f2}, !- Handle
  Schedule Day 2,                         !- Name
  ,                                       !- Schedule Type Limits Name
  ,                                       !- Interpolate to Timestep
  24,                                     !- Hour 1
  0,                                      !- Minute 1
  1;                                      !- Value Until Time 1

OS:Schedule:Ruleset,