!- NOTE: Auto-generated from /test/osw_files/SFA_10units_2story_CS_UA_3Beds_2Baths_Denver.osw

OS:Version,
  {cc0bb684-d3cc-4f21-a97b-ad98519ce116}, !- Handle
  2.9.0;                                  !- Version Identifier

OS:SimulationControl,
  {be2759be-6583-492d-bff3-a7ba18b4fd4b}, !- Handle
  ,                                       !- Do Zone Sizing Calculation
  ,                                       !- Do System Sizing Calculation
  ,                                       !- Do Plant Sizing Calculation
  No;                                     !- Run Simulation for Sizing Periods

OS:Timestep,
  {39d5534f-b652-4b1a-b313-ed1537de1927}, !- Handle
  6;                                      !- Number of Timesteps per Hour

OS:ShadowCalculation,
  {bf126c87-c6cb-4dc7-8e78-8d57faa5c094}, !- Handle
  20,                                     !- Calculation Frequency
  200;                                    !- Maximum Figures in Shadow Overlap Calculations

OS:SurfaceConvectionAlgorithm:Outside,
  {3c54efdc-43ce-46b9-82a9-42c3bbf6a5b8}, !- Handle
  DOE-2;                                  !- Algorithm

OS:SurfaceConvectionAlgorithm:Inside,
  {a8ebd7d8-8b6c-4b41-ba63-df4c3bf9b78e}, !- Handle
  TARP;                                   !- Algorithm

OS:ZoneCapacitanceMultiplier:ResearchSpecial,
  {81eb40d7-fb70-47df-9570-05995ee16e2c}, !- Handle
  ,                                       !- Temperature Capacity Multiplier
  15,                                     !- Humidity Capacity Multiplier
  ;                                       !- Carbon Dioxide Capacity Multiplier

OS:RunPeriod,
  {dec42ff7-84cc-4362-8a81-584f59f32a71}, !- Handle
  Run Period 1,                           !- Name
  1,                                      !- Begin Month
  1,                                      !- Begin Day of Month
  12,                                     !- End Month
  31,                                     !- End Day of Month
  ,                                       !- Use Weather File Holidays and Special Days
  ,                                       !- Use Weather File Daylight Saving Period
  ,                                       !- Apply Weekend Holiday Rule
  ,                                       !- Use Weather File Rain Indicators
  ,                                       !- Use Weather File Snow Indicators
  ;                                       !- Number of Times Runperiod to be Repeated

OS:YearDescription,
  {9419c358-9880-405f-a785-acb3d0204141}, !- Handle
  2007,                                   !- Calendar Year
  ,                                       !- Day of Week for Start Day
  ;                                       !- Is Leap Year

OS:ThermalZone,
  {dc84ffbd-c4be-4759-86d8-c8b003f1ada7}, !- Handle
  living zone,                            !- Name
  ,                                       !- Multiplier
  ,                                       !- Ceiling Height {m}
  ,                                       !- Volume {m3}
  ,                                       !- Floor Area {m2}
  ,                                       !- Zone Inside Convection Algorithm
  ,                                       !- Zone Outside Convection Algorithm
  ,                                       !- Zone Conditioning Equipment List Name
  {6786b34f-1cc0-4592-bd91-3683730624eb}, !- Zone Air Inlet Port List
  {ff160dfb-3cb1-4c1e-b50d-02d24044d913}, !- Zone Air Exhaust Port List
  {d0c82f9c-79b5-49a2-ba27-b519dc42b949}, !- Zone Air Node Name
  {8ff9489a-7493-4033-8876-044a07948694}, !- Zone Return Air Port List
  ,                                       !- Primary Daylighting Control Name
  ,                                       !- Fraction of Zone Controlled by Primary Daylighting Control
  ,                                       !- Secondary Daylighting Control Name
  ,                                       !- Fraction of Zone Controlled by Secondary Daylighting Control
  ,                                       !- Illuminance Map Name
  ,                                       !- Group Rendering Name
  ,                                       !- Thermostat Name
  No;                                     !- Use Ideal Air Loads

OS:Node,
  {8e0d9558-88fb-41dc-b341-f8e7167598dc}, !- Handle
  Node 1,                                 !- Name
  {d0c82f9c-79b5-49a2-ba27-b519dc42b949}, !- Inlet Port
  ;                                       !- Outlet Port

OS:Connection,
  {d0c82f9c-79b5-49a2-ba27-b519dc42b949}, !- Handle
  {6c906e22-f85a-4fbc-9aa2-fe409dadc8a5}, !- Name
  {dc84ffbd-c4be-4759-86d8-c8b003f1ada7}, !- Source Object
  11,                                     !- Outlet Port
  {8e0d9558-88fb-41dc-b341-f8e7167598dc}, !- Target Object
  2;                                      !- Inlet Port

OS:PortList,
  {6786b34f-1cc0-4592-bd91-3683730624eb}, !- Handle
  {c9045118-b892-42ef-9f0a-e2f49cad1672}, !- Name
  {dc84ffbd-c4be-4759-86d8-c8b003f1ada7}; !- HVAC Component

OS:PortList,
  {ff160dfb-3cb1-4c1e-b50d-02d24044d913}, !- Handle
  {5d8c6789-e62e-47a7-94af-6c93e01e3813}, !- Name
  {dc84ffbd-c4be-4759-86d8-c8b003f1ada7}; !- HVAC Component

OS:PortList,
  {8ff9489a-7493-4033-8876-044a07948694}, !- Handle
  {a592fae9-3065-4c62-8522-c7d34b6ef122}, !- Name
  {dc84ffbd-c4be-4759-86d8-c8b003f1ada7}; !- HVAC Component

OS:Sizing:Zone,
  {f6837093-9158-4ed4-b5eb-7171b3f193cf}, !- Handle
  {dc84ffbd-c4be-4759-86d8-c8b003f1ada7}, !- Zone or ZoneList Name
  SupplyAirTemperature,                   !- Zone Cooling Design Supply Air Temperature Input Method
  14,                                     !- Zone Cooling Design Supply Air Temperature {C}
  11.11,                                  !- Zone Cooling Design Supply Air Temperature Difference {deltaC}
  SupplyAirTemperature,                   !- Zone Heating Design Supply Air Temperature Input Method
  40,                                     !- Zone Heating Design Supply Air Temperature {C}
  11.11,                                  !- Zone Heating Design Supply Air Temperature Difference {deltaC}
  0.0085,                                 !- Zone Cooling Design Supply Air Humidity Ratio {kg-H2O/kg-air}
  0.008,                                  !- Zone Heating Design Supply Air Humidity Ratio {kg-H2O/kg-air}
  ,                                       !- Zone Heating Sizing Factor
  ,                                       !- Zone Cooling Sizing Factor
  DesignDay,                              !- Cooling Design Air Flow Method
  ,                                       !- Cooling Design Air Flow Rate {m3/s}
  ,                                       !- Cooling Minimum Air Flow per Zone Floor Area {m3/s-m2}
  ,                                       !- Cooling Minimum Air Flow {m3/s}
  ,                                       !- Cooling Minimum Air Flow Fraction
  DesignDay,                              !- Heating Design Air Flow Method
  ,                                       !- Heating Design Air Flow Rate {m3/s}
  ,                                       !- Heating Maximum Air Flow per Zone Floor Area {m3/s-m2}
  ,                                       !- Heating Maximum Air Flow {m3/s}
  ,                                       !- Heating Maximum Air Flow Fraction
  ,                                       !- Design Zone Air Distribution Effectiveness in Cooling Mode
  ,                                       !- Design Zone Air Distribution Effectiveness in Heating Mode
  No,                                     !- Account for Dedicated Outdoor Air System
  NeutralSupplyAir,                       !- Dedicated Outdoor Air System Control Strategy
  autosize,                               !- Dedicated Outdoor Air Low Setpoint Temperature for Design {C}
  autosize;                               !- Dedicated Outdoor Air High Setpoint Temperature for Design {C}

OS:ZoneHVAC:EquipmentList,
  {e765be67-a00f-44e2-bd77-b96299e62dbb}, !- Handle
  Zone HVAC Equipment List 1,             !- Name
  {dc84ffbd-c4be-4759-86d8-c8b003f1ada7}; !- Thermal Zone

OS:Space,
  {77eef623-f650-4658-a6d2-b0e11a3a177c}, !- Handle
  living space,                           !- Name
  {0f50d9a6-c213-4b34-aac9-674d83d3d03f}, !- Space Type Name
  ,                                       !- Default Construction Set Name
  ,                                       !- Default Schedule Set Name
  ,                                       !- Direction of Relative North {deg}
  ,                                       !- X Origin {m}
  ,                                       !- Y Origin {m}
  ,                                       !- Z Origin {m}
  ,                                       !- Building Story Name
  {dc84ffbd-c4be-4759-86d8-c8b003f1ada7}, !- Thermal Zone Name
  ,                                       !- Part of Total Floor Area
  ,                                       !- Design Specification Outdoor Air Object Name
  {ed388421-9985-4a3e-8266-737fea01e047}; !- Building Unit Name

OS:Surface,
  {539d558f-a71b-432c-8dce-b919016f920b}, !- Handle
  Surface 1,                              !- Name
  Floor,                                  !- Surface Type
  ,                                       !- Construction Name
  {77eef623-f650-4658-a6d2-b0e11a3a177c}, !- Space Name
  Surface,                                !- Outside Boundary Condition
  {96d7831a-939b-4986-ad6d-4bf933ba3179}, !- Outside Boundary Condition Object
  NoSun,                                  !- Sun Exposure
  NoWind,                                 !- Wind Exposure
  ,                                       !- View Factor to Ground
  ,                                       !- Number of Vertices
  0, -9.144, 0,                           !- X,Y,Z Vertex 1 {m}
  0, 0, 0,                                !- X,Y,Z Vertex 2 {m}
  4.572, 0, 0,                            !- X,Y,Z Vertex 3 {m}
  4.572, -9.144, 0;                       !- X,Y,Z Vertex 4 {m}

OS:Surface,
  {dd6e4f33-0611-46b9-970c-4a21eab06988}, !- Handle
  Surface 2,                              !- Name
  Wall,                                   !- Surface Type
  ,                                       !- Construction Name
  {77eef623-f650-4658-a6d2-b0e11a3a177c}, !- Space Name
  Outdoors,                               !- Outside Boundary Condition
  ,                                       !- Outside Boundary Condition Object
  SunExposed,                             !- Sun Exposure
  WindExposed,                            !- Wind Exposure
  ,                                       !- View Factor to Ground
  ,                                       !- Number of Vertices
  0, 0, 2.4384,                           !- X,Y,Z Vertex 1 {m}
  0, 0, 0,                                !- X,Y,Z Vertex 2 {m}
  0, -9.144, 0,                           !- X,Y,Z Vertex 3 {m}
  0, -9.144, 2.4384;                      !- X,Y,Z Vertex 4 {m}

OS:Surface,
  {d64a565e-0157-447b-9c7c-2677e99c774f}, !- Handle
  Surface 3,                              !- Name
  Wall,                                   !- Surface Type
  ,                                       !- Construction Name
  {77eef623-f650-4658-a6d2-b0e11a3a177c}, !- Space Name
  Outdoors,                               !- Outside Boundary Condition
  ,                                       !- Outside Boundary Condition Object
  SunExposed,                             !- Sun Exposure
  WindExposed,                            !- Wind Exposure
  ,                                       !- View Factor to Ground
  ,                                       !- Number of Vertices
  4.572, 0, 2.4384,                       !- X,Y,Z Vertex 1 {m}
  4.572, 0, 0,                            !- X,Y,Z Vertex 2 {m}
  0, 0, 0,                                !- X,Y,Z Vertex 3 {m}
  0, 0, 2.4384;                           !- X,Y,Z Vertex 4 {m}

OS:Surface,
  {b8debf7f-726c-4b08-bc3f-56e4f5163c26}, !- Handle
  Surface 4,                              !- Name
  Wall,                                   !- Surface Type
  ,                                       !- Construction Name
  {77eef623-f650-4658-a6d2-b0e11a3a177c}, !- Space Name
  Surface,                                !- Outside Boundary Condition
  {ad0a83ef-9bbc-4318-89b4-50fc65de4f77}, !- Outside Boundary Condition Object
  NoSun,                                  !- Sun Exposure
  NoWind,                                 !- Wind Exposure
  ,                                       !- View Factor to Ground
  ,                                       !- Number of Vertices
  4.572, -9.144, 2.4384,                  !- X,Y,Z Vertex 1 {m}
  4.572, -9.144, 0,                       !- X,Y,Z Vertex 2 {m}
  4.572, 0, 0,                            !- X,Y,Z Vertex 3 {m}
  4.572, 0, 2.4384;                       !- X,Y,Z Vertex 4 {m}

OS:Surface,
  {f10b16ff-dcfc-432e-bf75-449468815b0a}, !- Handle
  Surface 5,                              !- Name
  Wall,                                   !- Surface Type
  ,                                       !- Construction Name
  {77eef623-f650-4658-a6d2-b0e11a3a177c}, !- Space Name
  Outdoors,                               !- Outside Boundary Condition
  ,                                       !- Outside Boundary Condition Object
  SunExposed,                             !- Sun Exposure
  WindExposed,                            !- Wind Exposure
  ,                                       !- View Factor to Ground
  ,                                       !- Number of Vertices
  0, -9.144, 2.4384,                      !- X,Y,Z Vertex 1 {m}
  0, -9.144, 0,                           !- X,Y,Z Vertex 2 {m}
  4.572, -9.144, 0,                       !- X,Y,Z Vertex 3 {m}
  4.572, -9.144, 2.4384;                  !- X,Y,Z Vertex 4 {m}

OS:Surface,
  {97f6ccc4-70b9-4c3d-856a-037d05741f96}, !- Handle
  Surface 6,                              !- Name
  RoofCeiling,                            !- Surface Type
  ,                                       !- Construction Name
  {77eef623-f650-4658-a6d2-b0e11a3a177c}, !- Space Name
  Surface,                                !- Outside Boundary Condition
  {44f4c117-01ed-4beb-bb7c-3a2d66575821}, !- Outside Boundary Condition Object
  NoSun,                                  !- Sun Exposure
  NoWind,                                 !- Wind Exposure
  ,                                       !- View Factor to Ground
  ,                                       !- Number of Vertices
  4.572, -9.144, 2.4384,                  !- X,Y,Z Vertex 1 {m}
  4.572, 0, 2.4384,                       !- X,Y,Z Vertex 2 {m}
  0, 0, 2.4384,                           !- X,Y,Z Vertex 3 {m}
  0, -9.144, 2.4384;                      !- X,Y,Z Vertex 4 {m}

OS:SpaceType,
  {0f50d9a6-c213-4b34-aac9-674d83d3d03f}, !- Handle
  Space Type 1,                           !- Name
  ,                                       !- Default Construction Set Name
  ,                                       !- Default Schedule Set Name
  ,                                       !- Group Rendering Name
  ,                                       !- Design Specification Outdoor Air Object Name
  ,                                       !- Standards Template
  ,                                       !- Standards Building Type
  living;                                 !- Standards Space Type

OS:Space,
  {a37608c3-ebdf-450b-92f5-d1392566018d}, !- Handle
  living space|story 2,                   !- Name
  {0f50d9a6-c213-4b34-aac9-674d83d3d03f}, !- Space Type Name
  ,                                       !- Default Construction Set Name
  ,                                       !- Default Schedule Set Name
  -0,                                     !- Direction of Relative North {deg}
  0,                                      !- X Origin {m}
  0,                                      !- Y Origin {m}
  2.4384,                                 !- Z Origin {m}
  ,                                       !- Building Story Name
  {dc84ffbd-c4be-4759-86d8-c8b003f1ada7}, !- Thermal Zone Name
  ,                                       !- Part of Total Floor Area
  ,                                       !- Design Specification Outdoor Air Object Name
  {ed388421-9985-4a3e-8266-737fea01e047}; !- Building Unit Name

OS:Surface,
  {977b368c-0d51-478c-a681-eaa014f26374}, !- Handle
  Surface 7,                              !- Name
  Wall,                                   !- Surface Type
  ,                                       !- Construction Name
  {a37608c3-ebdf-450b-92f5-d1392566018d}, !- Space Name
  Outdoors,                               !- Outside Boundary Condition
  ,                                       !- Outside Boundary Condition Object
  SunExposed,                             !- Sun Exposure
  WindExposed,                            !- Wind Exposure
  ,                                       !- View Factor to Ground
  ,                                       !- Number of Vertices
  0, 0, 2.4384,                           !- X,Y,Z Vertex 1 {m}
  0, 0, 0,                                !- X,Y,Z Vertex 2 {m}
  0, -9.144, 0,                           !- X,Y,Z Vertex 3 {m}
  0, -9.144, 2.4384;                      !- X,Y,Z Vertex 4 {m}

OS:Surface,
  {3560889c-588b-4d1f-b1fb-fb42c5942aa8}, !- Handle
  Surface 8,                              !- Name
  Wall,                                   !- Surface Type
  ,                                       !- Construction Name
  {a37608c3-ebdf-450b-92f5-d1392566018d}, !- Space Name
  Surface,                                !- Outside Boundary Condition
  {3fa28793-f5c7-4f22-81c4-1cd744184501}, !- Outside Boundary Condition Object
  NoSun,                                  !- Sun Exposure
  NoWind,                                 !- Wind Exposure
  ,                                       !- View Factor to Ground
  ,                                       !- Number of Vertices
  4.572, -9.144, 2.4384,                  !- X,Y,Z Vertex 1 {m}
  4.572, -9.144, 0,                       !- X,Y,Z Vertex 2 {m}
  4.572, 0, 0,                            !- X,Y,Z Vertex 3 {m}
  4.572, 0, 2.4384;                       !- X,Y,Z Vertex 4 {m}

OS:Surface,
  {5e1531b2-8dfb-43cf-b17b-91c5f0f2a8d0}, !- Handle
  Surface 9,                              !- Name
  RoofCeiling,                            !- Surface Type
  ,                                       !- Construction Name
  {a37608c3-ebdf-450b-92f5-d1392566018d}, !- Space Name
  Surface,                                !- Outside Boundary Condition
  {0c7860f0-add8-459a-a7c2-be233c58c09b}, !- Outside Boundary Condition Object
  NoSun,                                  !- Sun Exposure
  NoWind,                                 !- Wind Exposure
  ,                                       !- View Factor to Ground
  ,                                       !- Number of Vertices
  4.572, -9.144, 2.4384,                  !- X,Y,Z Vertex 1 {m}
  4.572, 0, 2.4384,                       !- X,Y,Z Vertex 2 {m}
  0, 0, 2.4384,                           !- X,Y,Z Vertex 3 {m}
  0, -9.144, 2.4384;                      !- X,Y,Z Vertex 4 {m}

OS:Surface,
  {44f4c117-01ed-4beb-bb7c-3a2d66575821}, !- Handle
  Surface 10,                             !- Name
  Floor,                                  !- Surface Type
  ,                                       !- Construction Name
  {a37608c3-ebdf-450b-92f5-d1392566018d}, !- Space Name
  Surface,                                !- Outside Boundary Condition
  {97f6ccc4-70b9-4c3d-856a-037d05741f96}, !- Outside Boundary Condition Object
  NoSun,                                  !- Sun Exposure
  NoWind,                                 !- Wind Exposure
  ,                                       !- View Factor to Ground
  ,                                       !- Number of Vertices
  0, -9.144, 0,                           !- X,Y,Z Vertex 1 {m}
  0, 0, 0,                                !- X,Y,Z Vertex 2 {m}
  4.572, 0, 0,                            !- X,Y,Z Vertex 3 {m}
  4.572, -9.144, 0;                       !- X,Y,Z Vertex 4 {m}

OS:Surface,
  {56768ca4-fdea-4f7a-b1a6-6096672faf9b}, !- Handle
  Surface 11,                             !- Name
  Wall,                                   !- Surface Type
  ,                                       !- Construction Name
  {a37608c3-ebdf-450b-92f5-d1392566018d}, !- Space Name
  Outdoors,                               !- Outside Boundary Condition
  ,                                       !- Outside Boundary Condition Object
  SunExposed,                             !- Sun Exposure
  WindExposed,                            !- Wind Exposure
  ,                                       !- View Factor to Ground
  ,                                       !- Number of Vertices
  0, -9.144, 2.4384,                      !- X,Y,Z Vertex 1 {m}
  0, -9.144, 0,                           !- X,Y,Z Vertex 2 {m}
  4.572, -9.144, 0,                       !- X,Y,Z Vertex 3 {m}
  4.572, -9.144, 2.4384;                  !- X,Y,Z Vertex 4 {m}

OS:Surface,
  {f935aed9-ff42-4404-83a8-3c582f380c37}, !- Handle
  Surface 12,                             !- Name
  Wall,                                   !- Surface Type
  ,                                       !- Construction Name
  {a37608c3-ebdf-450b-92f5-d1392566018d}, !- Space Name
  Outdoors,                               !- Outside Boundary Condition
  ,                                       !- Outside Boundary Condition Object
  SunExposed,                             !- Sun Exposure
  WindExposed,                            !- Wind Exposure
  ,                                       !- View Factor to Ground
  ,                                       !- Number of Vertices
  4.572, 0, 2.4384,                       !- X,Y,Z Vertex 1 {m}
  4.572, 0, 0,                            !- X,Y,Z Vertex 2 {m}
  0, 0, 0,                                !- X,Y,Z Vertex 3 {m}
  0, 0, 2.4384;                           !- X,Y,Z Vertex 4 {m}

OS:ThermalZone,
  {0bf83436-7cfa-43b7-b163-f31aa22c2664}, !- Handle
  living zone|unit 2,                     !- Name
  ,                                       !- Multiplier
  ,                                       !- Ceiling Height {m}
  ,                                       !- Volume {m3}
  ,                                       !- Floor Area {m2}
  ,                                       !- Zone Inside Convection Algorithm
  ,                                       !- Zone Outside Convection Algorithm
  ,                                       !- Zone Conditioning Equipment List Name
  {5d9f04b7-69ef-4445-a6a0-c326a8e564bd}, !- Zone Air Inlet Port List
  {258963e2-0ea2-44d5-ad2c-7a825fa5d802}, !- Zone Air Exhaust Port List
  {ef28ad49-ff2c-4a52-b264-7511ec77f615}, !- Zone Air Node Name
  {02aec7d5-930f-4b06-b49b-0ebf3dc06cd9}, !- Zone Return Air Port List
  ,                                       !- Primary Daylighting Control Name
  ,                                       !- Fraction of Zone Controlled by Primary Daylighting Control
  ,                                       !- Secondary Daylighting Control Name
  ,                                       !- Fraction of Zone Controlled by Secondary Daylighting Control
  ,                                       !- Illuminance Map Name
  ,                                       !- Group Rendering Name
  ,                                       !- Thermostat Name
  No;                                     !- Use Ideal Air Loads

OS:Node,
  {2650c537-fd7d-43c8-8d43-372a6699e5b1}, !- Handle
  Node 2,                                 !- Name
  {ef28ad49-ff2c-4a52-b264-7511ec77f615}, !- Inlet Port
  ;                                       !- Outlet Port

OS:Connection,
  {ef28ad49-ff2c-4a52-b264-7511ec77f615}, !- Handle
  {448101da-df28-42d4-91d7-a66132c36fab}, !- Name
  {0bf83436-7cfa-43b7-b163-f31aa22c2664}, !- Source Object
  11,                                     !- Outlet Port
  {2650c537-fd7d-43c8-8d43-372a6699e5b1}, !- Target Object
  2;                                      !- Inlet Port

OS:PortList,
  {5d9f04b7-69ef-4445-a6a0-c326a8e564bd}, !- Handle
  {535f7930-2d21-4a7c-8be2-bb186e97e37c}, !- Name
  {0bf83436-7cfa-43b7-b163-f31aa22c2664}; !- HVAC Component

OS:PortList,
  {258963e2-0ea2-44d5-ad2c-7a825fa5d802}, !- Handle
  {4c440697-975c-4088-a4cc-8a3d481b4e2a}, !- Name
  {0bf83436-7cfa-43b7-b163-f31aa22c2664}; !- HVAC Component

OS:PortList,
  {02aec7d5-930f-4b06-b49b-0ebf3dc06cd9}, !- Handle
  {19957681-0333-4d0b-8ce5-766eac5d0a98}, !- Name
  {0bf83436-7cfa-43b7-b163-f31aa22c2664}; !- HVAC Component

OS:Sizing:Zone,
  {923a1a28-a065-4b8c-ab0d-83ab9e9075bf}, !- Handle
  {0bf83436-7cfa-43b7-b163-f31aa22c2664}, !- Zone or ZoneList Name
  SupplyAirTemperature,                   !- Zone Cooling Design Supply Air Temperature Input Method
  14,                                     !- Zone Cooling Design Supply Air Temperature {C}
  11.11,                                  !- Zone Cooling Design Supply Air Temperature Difference {deltaC}
  SupplyAirTemperature,                   !- Zone Heating Design Supply Air Temperature Input Method
  40,                                     !- Zone Heating Design Supply Air Temperature {C}
  11.11,                                  !- Zone Heating Design Supply Air Temperature Difference {deltaC}
  0.0085,                                 !- Zone Cooling Design Supply Air Humidity Ratio {kg-H2O/kg-air}
  0.008,                                  !- Zone Heating Design Supply Air Humidity Ratio {kg-H2O/kg-air}
  ,                                       !- Zone Heating Sizing Factor
  ,                                       !- Zone Cooling Sizing Factor
  DesignDay,                              !- Cooling Design Air Flow Method
  ,                                       !- Cooling Design Air Flow Rate {m3/s}
  ,                                       !- Cooling Minimum Air Flow per Zone Floor Area {m3/s-m2}
  ,                                       !- Cooling Minimum Air Flow {m3/s}
  ,                                       !- Cooling Minimum Air Flow Fraction
  DesignDay,                              !- Heating Design Air Flow Method
  ,                                       !- Heating Design Air Flow Rate {m3/s}
  ,                                       !- Heating Maximum Air Flow per Zone Floor Area {m3/s-m2}
  ,                                       !- Heating Maximum Air Flow {m3/s}
  ,                                       !- Heating Maximum Air Flow Fraction
  ,                                       !- Design Zone Air Distribution Effectiveness in Cooling Mode
  ,                                       !- Design Zone Air Distribution Effectiveness in Heating Mode
  No,                                     !- Account for Dedicated Outdoor Air System
  NeutralSupplyAir,                       !- Dedicated Outdoor Air System Control Strategy
  autosize,                               !- Dedicated Outdoor Air Low Setpoint Temperature for Design {C}
  autosize;                               !- Dedicated Outdoor Air High Setpoint Temperature for Design {C}

OS:ZoneHVAC:EquipmentList,
  {bcf0b559-2e2f-47e0-9d4f-14c67356d9a0}, !- Handle
  Zone HVAC Equipment List 2,             !- Name
  {0bf83436-7cfa-43b7-b163-f31aa22c2664}; !- Thermal Zone

OS:Space,
  {cdf623e4-77c2-4d99-817a-a9326b56ce25}, !- Handle
  living space|unit 2|story 1,            !- Name
  {0f50d9a6-c213-4b34-aac9-674d83d3d03f}, !- Space Type Name
  ,                                       !- Default Construction Set Name
  ,                                       !- Default Schedule Set Name
  -0,                                     !- Direction of Relative North {deg}
  0,                                      !- X Origin {m}
  0,                                      !- Y Origin {m}
  0,                                      !- Z Origin {m}
  ,                                       !- Building Story Name
  {0bf83436-7cfa-43b7-b163-f31aa22c2664}, !- Thermal Zone Name
  ,                                       !- Part of Total Floor Area
  ,                                       !- Design Specification Outdoor Air Object Name
  {f3b35754-d744-4d16-9250-502d4150f040}; !- Building Unit Name

OS:Surface,
  {ad0a83ef-9bbc-4318-89b4-50fc65de4f77}, !- Handle
  Surface 18,                             !- Name
  Wall,                                   !- Surface Type
  ,                                       !- Construction Name
  {cdf623e4-77c2-4d99-817a-a9326b56ce25}, !- Space Name
  Surface,                                !- Outside Boundary Condition
  {b8debf7f-726c-4b08-bc3f-56e4f5163c26}, !- Outside Boundary Condition Object
  NoSun,                                  !- Sun Exposure
  NoWind,                                 !- Wind Exposure
  ,                                       !- View Factor to Ground
  ,                                       !- Number of Vertices
  4.572, 0, 2.4384,                       !- X,Y,Z Vertex 1 {m}
  4.572, 0, 0,                            !- X,Y,Z Vertex 2 {m}
  4.572, -9.144, 0,                       !- X,Y,Z Vertex 3 {m}
  4.572, -9.144, 2.4384;                  !- X,Y,Z Vertex 4 {m}

OS:Surface,
  {a5672b9b-7dd0-4e24-8ab7-9ed9ed601154}, !- Handle
  Surface 19,                             !- Name
  Wall,                                   !- Surface Type
  ,                                       !- Construction Name
  {cdf623e4-77c2-4d99-817a-a9326b56ce25}, !- Space Name
  Surface,                                !- Outside Boundary Condition
  {4c04baf8-d0b4-4551-a816-74f2830040d4}, !- Outside Boundary Condition Object
  NoSun,                                  !- Sun Exposure
  NoWind,                                 !- Wind Exposure
  ,                                       !- View Factor to Ground
  ,                                       !- Number of Vertices
  9.144, -9.144, 2.4384,                  !- X,Y,Z Vertex 1 {m}
  9.144, -9.144, 0,                       !- X,Y,Z Vertex 2 {m}
  9.144, 0, 0,                            !- X,Y,Z Vertex 3 {m}
  9.144, 0, 2.4384;                       !- X,Y,Z Vertex 4 {m}

OS:Surface,