!- NOTE: Auto-generated from /test/osw_files/SFA_4units_1story_SL_UA_3Beds_2Baths_Denver_CentralAC_NoSetpoints.osw

OS:Version,
  {f2815deb-3d49-4bbb-8ceb-544f1f679421}, !- Handle
  2.8.1;                                  !- Version Identifier

OS:SimulationControl,
  {4e454bc0-4a79-4383-84a5-515e5b01ba9a}, !- Handle
  ,                                       !- Do Zone Sizing Calculation
  ,                                       !- Do System Sizing Calculation
  ,                                       !- Do Plant Sizing Calculation
  No;                                     !- Run Simulation for Sizing Periods

OS:Timestep,
  {c06c722c-0915-4609-bb7a-1b611c2a1612}, !- Handle
  6;                                      !- Number of Timesteps per Hour

OS:ShadowCalculation,
  {9bc45ba8-773d-4732-9d73-085dbfaf7886}, !- Handle
  20,                                     !- Calculation Frequency
  200;                                    !- Maximum Figures in Shadow Overlap Calculations

OS:SurfaceConvectionAlgorithm:Outside,
  {05d55ed9-60a1-4228-91ac-a902f881b03a}, !- Handle
  DOE-2;                                  !- Algorithm

OS:SurfaceConvectionAlgorithm:Inside,
  {6824bc7c-b2f5-48f9-a789-f56ee69b19c9}, !- Handle
  TARP;                                   !- Algorithm

OS:ZoneCapacitanceMultiplier:ResearchSpecial,
  {df1dc653-7593-4912-b6f2-63498a41e130}, !- Handle
  ,                                       !- Temperature Capacity Multiplier
  15,                                     !- Humidity Capacity Multiplier
  ;                                       !- Carbon Dioxide Capacity Multiplier

OS:RunPeriod,
  {a2191788-06a2-4321-b205-5fdce719be16}, !- Handle
  Run Period 1,                           !- Name
  1,                                      !- Begin Month
  1,                                      !- Begin Day of Month
  12,                                     !- End Month
  31,                                     !- End Day of Month
  ,                                       !- Use Weather File Holidays and Special Days
  ,                                       !- Use Weather File Daylight Saving Period
  ,                                       !- Apply Weekend Holiday Rule
  ,                                       !- Use Weather File Rain Indicators
  ,                                       !- Use Weather File Snow Indicators
  ;                                       !- Number of Times Runperiod to be Repeated

OS:YearDescription,
  {9ba46af4-e4bf-4726-a8e2-e5edf0a1e14e}, !- Handle
  2007,                                   !- Calendar Year
  ,                                       !- Day of Week for Start Day
  ;                                       !- Is Leap Year

OS:ThermalZone,
  {b9e7e6ad-c2a0-4df6-93a2-648b2574c36c}, !- Handle
  living zone,                            !- Name
  ,                                       !- Multiplier
  ,                                       !- Ceiling Height {m}
  ,                                       !- Volume {m3}
  ,                                       !- Floor Area {m2}
  ,                                       !- Zone Inside Convection Algorithm
  ,                                       !- Zone Outside Convection Algorithm
  ,                                       !- Zone Conditioning Equipment List Name
  {9ccec4dc-d877-4488-a072-bcea84095235}, !- Zone Air Inlet Port List
  {ce4015ef-625e-4762-a586-e3c568517741}, !- Zone Air Exhaust Port List
  {55d2eba9-daaa-45cb-9954-a83b90b267fd}, !- Zone Air Node Name
  {c5200d4e-e157-40ce-bca4-a8b3a873b12f}, !- Zone Return Air Port List
  ,                                       !- Primary Daylighting Control Name
  ,                                       !- Fraction of Zone Controlled by Primary Daylighting Control
  ,                                       !- Secondary Daylighting Control Name
  ,                                       !- Fraction of Zone Controlled by Secondary Daylighting Control
  ,                                       !- Illuminance Map Name
  ,                                       !- Group Rendering Name
  ,                                       !- Thermostat Name
  No;                                     !- Use Ideal Air Loads

OS:Node,
  {5507cb3d-de52-4a59-af18-2cda95813b84}, !- Handle
  Node 1,                                 !- Name
  {55d2eba9-daaa-45cb-9954-a83b90b267fd}, !- Inlet Port
  ;                                       !- Outlet Port

OS:Connection,
  {55d2eba9-daaa-45cb-9954-a83b90b267fd}, !- Handle
  {83f6d907-47f8-45a2-8293-b65582e9422e}, !- Name
  {b9e7e6ad-c2a0-4df6-93a2-648b2574c36c}, !- Source Object
  11,                                     !- Outlet Port
  {5507cb3d-de52-4a59-af18-2cda95813b84}, !- Target Object
  2;                                      !- Inlet Port

OS:PortList,
  {9ccec4dc-d877-4488-a072-bcea84095235}, !- Handle
  {8f3254c0-b971-46fe-9c44-6c0d041bda94}, !- Name
  {b9e7e6ad-c2a0-4df6-93a2-648b2574c36c}, !- HVAC Component
  {9b5dfc72-536f-438d-bca2-6a54b86390b2}; !- Port 1

OS:PortList,
  {ce4015ef-625e-4762-a586-e3c568517741}, !- Handle
  {2fdc6986-f847-4a07-979c-6782e6769aaf}, !- Name
  {b9e7e6ad-c2a0-4df6-93a2-648b2574c36c}; !- HVAC Component

OS:PortList,
  {c5200d4e-e157-40ce-bca4-a8b3a873b12f}, !- Handle
  {23c2a2fb-b774-4400-9100-3a817ed8a2f2}, !- Name
  {b9e7e6ad-c2a0-4df6-93a2-648b2574c36c}, !- HVAC Component
  {96492328-4611-4886-8b4a-764abe6ea0bb}; !- Port 1

OS:Sizing:Zone,
  {12539895-218d-4ca4-ba36-dc9115e91b83}, !- Handle
  {b9e7e6ad-c2a0-4df6-93a2-648b2574c36c}, !- Zone or ZoneList Name
  SupplyAirTemperature,                   !- Zone Cooling Design Supply Air Temperature Input Method
  14,                                     !- Zone Cooling Design Supply Air Temperature {C}
  11.11,                                  !- Zone Cooling Design Supply Air Temperature Difference {deltaC}
  SupplyAirTemperature,                   !- Zone Heating Design Supply Air Temperature Input Method
  40,                                     !- Zone Heating Design Supply Air Temperature {C}
  11.11,                                  !- Zone Heating Design Supply Air Temperature Difference {deltaC}
  0.0085,                                 !- Zone Cooling Design Supply Air Humidity Ratio {kg-H2O/kg-air}
  0.008,                                  !- Zone Heating Design Supply Air Humidity Ratio {kg-H2O/kg-air}
  ,                                       !- Zone Heating Sizing Factor
  ,                                       !- Zone Cooling Sizing Factor
  DesignDay,                              !- Cooling Design Air Flow Method
  ,                                       !- Cooling Design Air Flow Rate {m3/s}
  ,                                       !- Cooling Minimum Air Flow per Zone Floor Area {m3/s-m2}
  ,                                       !- Cooling Minimum Air Flow {m3/s}
  ,                                       !- Cooling Minimum Air Flow Fraction
  DesignDay,                              !- Heating Design Air Flow Method
  ,                                       !- Heating Design Air Flow Rate {m3/s}
  ,                                       !- Heating Maximum Air Flow per Zone Floor Area {m3/s-m2}
  ,                                       !- Heating Maximum Air Flow {m3/s}
  ,                                       !- Heating Maximum Air Flow Fraction
  ,                                       !- Design Zone Air Distribution Effectiveness in Cooling Mode
  ,                                       !- Design Zone Air Distribution Effectiveness in Heating Mode
  No,                                     !- Account for Dedicated Outdoor Air System
  NeutralSupplyAir,                       !- Dedicated Outdoor Air System Control Strategy
  autosize,                               !- Dedicated Outdoor Air Low Setpoint Temperature for Design {C}
  autosize;                               !- Dedicated Outdoor Air High Setpoint Temperature for Design {C}

OS:ZoneHVAC:EquipmentList,
  {9f2a49dd-e0e3-431f-bcbe-7c6e525c67ea}, !- Handle
  Zone HVAC Equipment List 1,             !- Name
  {b9e7e6ad-c2a0-4df6-93a2-648b2574c36c}, !- Thermal Zone
  SequentialLoad,                         !- Load Distribution Scheme
  {72f8576c-2f16-425b-9ee4-e013e98e6061}, !- Zone Equipment 1
  1,                                      !- Zone Equipment Cooling Sequence 1
  1,                                      !- Zone Equipment Heating or No-Load Sequence 1
  ,                                       !- Zone Equipment Sequential Cooling Fraction 1
  ;                                       !- Zone Equipment Sequential Heating Fraction 1

OS:Space,
  {b32fd1f1-7369-42bb-a409-f29f21297ca0}, !- Handle
  living space,                           !- Name
  {5728e244-0b4a-4585-8af4-ca4a48a29711}, !- Space Type Name
  ,                                       !- Default Construction Set Name
  ,                                       !- Default Schedule Set Name
  ,                                       !- Direction of Relative North {deg}
  ,                                       !- X Origin {m}
  ,                                       !- Y Origin {m}
  ,                                       !- Z Origin {m}
  ,                                       !- Building Story Name
  {b9e7e6ad-c2a0-4df6-93a2-648b2574c36c}, !- Thermal Zone Name
  ,                                       !- Part of Total Floor Area
  ,                                       !- Design Specification Outdoor Air Object Name
  {4f420ea9-5061-411a-8405-ead3086ffbc7}; !- Building Unit Name

OS:Surface,
  {2cc33830-2dc3-4b60-9c02-8180131a2caf}, !- Handle
  Surface 1,                              !- Name
  Floor,                                  !- Surface Type
  ,                                       !- Construction Name
  {b32fd1f1-7369-42bb-a409-f29f21297ca0}, !- Space Name
  Foundation,                             !- Outside Boundary Condition
  ,                                       !- Outside Boundary Condition Object
  NoSun,                                  !- Sun Exposure
  NoWind,                                 !- Wind Exposure
  ,                                       !- View Factor to Ground
  ,                                       !- Number of Vertices
  0, -12.9315688143396, 0,                !- X,Y,Z Vertex 1 {m}
  0, 0, 0,                                !- X,Y,Z Vertex 2 {m}
  6.46578440716979, 0, 0,                 !- X,Y,Z Vertex 3 {m}
  6.46578440716979, -12.9315688143396, 0; !- X,Y,Z Vertex 4 {m}

OS:Surface,
  {08f4bc5f-06bb-4762-b4a9-0c9396b014ed}, !- Handle
  Surface 2,                              !- Name
  Wall,                                   !- Surface Type
  ,                                       !- Construction Name
  {b32fd1f1-7369-42bb-a409-f29f21297ca0}, !- Space Name
  Outdoors,                               !- Outside Boundary Condition
  ,                                       !- Outside Boundary Condition Object
  SunExposed,                             !- Sun Exposure
  WindExposed,                            !- Wind Exposure
  ,                                       !- View Factor to Ground
  ,                                       !- Number of Vertices
  0, 0, 2.4384,                           !- X,Y,Z Vertex 1 {m}
  0, 0, 0,                                !- X,Y,Z Vertex 2 {m}
  0, -12.9315688143396, 0,                !- X,Y,Z Vertex 3 {m}
  0, -12.9315688143396, 2.4384;           !- X,Y,Z Vertex 4 {m}

OS:Surface,
  {91b34c85-963a-4fbb-855d-74587f82cfbd}, !- Handle
  Surface 3,                              !- Name
  Wall,                                   !- Surface Type
  ,                                       !- Construction Name
  {b32fd1f1-7369-42bb-a409-f29f21297ca0}, !- Space Name
  Outdoors,                               !- Outside Boundary Condition
  ,                                       !- Outside Boundary Condition Object
  SunExposed,                             !- Sun Exposure
  WindExposed,                            !- Wind Exposure
  ,                                       !- View Factor to Ground
  ,                                       !- Number of Vertices
  6.46578440716979, 0, 2.4384,            !- X,Y,Z Vertex 1 {m}
  6.46578440716979, 0, 0,                 !- X,Y,Z Vertex 2 {m}
  0, 0, 0,                                !- X,Y,Z Vertex 3 {m}
  0, 0, 2.4384;                           !- X,Y,Z Vertex 4 {m}

OS:Surface,
  {7ad6ba0c-35a0-4ae7-beb5-e9592d8d3bc8}, !- Handle
  Surface 4,                              !- Name
  Wall,                                   !- Surface Type
  ,                                       !- Construction Name
  {b32fd1f1-7369-42bb-a409-f29f21297ca0}, !- Space Name
  Surface,                                !- Outside Boundary Condition
  {c9fb23ec-1fe0-4548-90fe-d280df68f1b4}, !- Outside Boundary Condition Object
  NoSun,                                  !- Sun Exposure
  NoWind,                                 !- Wind Exposure
  ,                                       !- View Factor to Ground
  ,                                       !- Number of Vertices
  6.46578440716979, -12.9315688143396, 2.4384, !- X,Y,Z Vertex 1 {m}
  6.46578440716979, -12.9315688143396, 0, !- X,Y,Z Vertex 2 {m}
  6.46578440716979, 0, 0,                 !- X,Y,Z Vertex 3 {m}
  6.46578440716979, 0, 2.4384;            !- X,Y,Z Vertex 4 {m}

OS:Surface,
  {4b2ed5be-2b60-4f44-8eac-c2f18aca39e5}, !- Handle
  Surface 5,                              !- Name
  Wall,                                   !- Surface Type
  ,                                       !- Construction Name
  {b32fd1f1-7369-42bb-a409-f29f21297ca0}, !- Space Name
  Outdoors,                               !- Outside Boundary Condition
  ,                                       !- Outside Boundary Condition Object
  SunExposed,                             !- Sun Exposure
  WindExposed,                            !- Wind Exposure
  ,                                       !- View Factor to Ground
  ,                                       !- Number of Vertices
  0, -12.9315688143396, 2.4384,           !- X,Y,Z Vertex 1 {m}
  0, -12.9315688143396, 0,                !- X,Y,Z Vertex 2 {m}
  6.46578440716979, -12.9315688143396, 0, !- X,Y,Z Vertex 3 {m}
  6.46578440716979, -12.9315688143396, 2.4384; !- X,Y,Z Vertex 4 {m}

OS:Surface,
  {6d4b28f9-edd8-4566-bcc2-e936baa1280b}, !- Handle
  Surface 6,                              !- Name
  RoofCeiling,                            !- Surface Type
  ,                                       !- Construction Name
  {b32fd1f1-7369-42bb-a409-f29f21297ca0}, !- Space Name
  Surface,                                !- Outside Boundary Condition
  {990825c2-ad91-4c1d-8753-974fd3c99c7b}, !- Outside Boundary Condition Object
  NoSun,                                  !- Sun Exposure
  NoWind,                                 !- Wind Exposure
  ,                                       !- View Factor to Ground
  ,                                       !- Number of Vertices
  6.46578440716979, -12.9315688143396, 2.4384, !- X,Y,Z Vertex 1 {m}
  6.46578440716979, 0, 2.4384,            !- X,Y,Z Vertex 2 {m}
  0, 0, 2.4384,                           !- X,Y,Z Vertex 3 {m}
  0, -12.9315688143396, 2.4384;           !- X,Y,Z Vertex 4 {m}

OS:SpaceType,
  {5728e244-0b4a-4585-8af4-ca4a48a29711}, !- Handle
  Space Type 1,                           !- Name
  ,                                       !- Default Construction Set Name
  ,                                       !- Default Schedule Set Name
  ,                                       !- Group Rendering Name
  ,                                       !- Design Specification Outdoor Air Object Name
  ,                                       !- Standards Template
  ,                                       !- Standards Building Type
  living;                                 !- Standards Space Type

OS:ThermalZone,
  {47d49bfd-9882-4a16-a957-e0046f813517}, !- Handle
  living zone|unit 2,                     !- Name
  ,                                       !- Multiplier
  ,                                       !- Ceiling Height {m}
  ,                                       !- Volume {m3}
  ,                                       !- Floor Area {m2}
  ,                                       !- Zone Inside Convection Algorithm
  ,                                       !- Zone Outside Convection Algorithm
  ,                                       !- Zone Conditioning Equipment List Name
  {8147fe0f-bf09-46d5-a9f7-6a281585c63f}, !- Zone Air Inlet Port List
  {ff29c918-008e-4222-9cbd-5e96d215ed39}, !- Zone Air Exhaust Port List
  {33ac58d0-a658-4c3c-9b4d-c034c028ca95}, !- Zone Air Node Name
  {a8c625a7-0a6d-4d46-b880-0d827234a999}, !- Zone Return Air Port List
  ,                                       !- Primary Daylighting Control Name
  ,                                       !- Fraction of Zone Controlled by Primary Daylighting Control
  ,                                       !- Secondary Daylighting Control Name
  ,                                       !- Fraction of Zone Controlled by Secondary Daylighting Control
  ,                                       !- Illuminance Map Name
  ,                                       !- Group Rendering Name
  ,                                       !- Thermostat Name
  No;                                     !- Use Ideal Air Loads

OS:Node,
  {0811d478-ab9e-4302-9c57-e879e664f0d5}, !- Handle
  Node 2,                                 !- Name
  {33ac58d0-a658-4c3c-9b4d-c034c028ca95}, !- Inlet Port
  ;                                       !- Outlet Port

OS:Connection,
  {33ac58d0-a658-4c3c-9b4d-c034c028ca95}, !- Handle
  {6dcbbbd6-6d74-4d89-88d7-e5043b728ac9}, !- Name
  {47d49bfd-9882-4a16-a957-e0046f813517}, !- Source Object
  11,                                     !- Outlet Port
  {0811d478-ab9e-4302-9c57-e879e664f0d5}, !- Target Object
  2;                                      !- Inlet Port

OS:PortList,
  {8147fe0f-bf09-46d5-a9f7-6a281585c63f}, !- Handle
  {c9df3f73-f5e4-4ae9-b0d0-3278474c7731}, !- Name
  {47d49bfd-9882-4a16-a957-e0046f813517}, !- HVAC Component
  {353a8800-586c-402e-aa5b-7921035eb194}; !- Port 1

OS:PortList,
  {ff29c918-008e-4222-9cbd-5e96d215ed39}, !- Handle
  {26b26e8f-55df-4afc-8d1b-3d2291eb51ed}, !- Name
  {47d49bfd-9882-4a16-a957-e0046f813517}; !- HVAC Component

OS:PortList,
  {a8c625a7-0a6d-4d46-b880-0d827234a999}, !- Handle
  {3a7cfede-5456-430b-8b82-7de8eba4749e}, !- Name
  {47d49bfd-9882-4a16-a957-e0046f813517}, !- HVAC Component
  {ec335340-6da7-4b11-84e7-58dfb7056f08}; !- Port 1

OS:Sizing:Zone,
  {474e4b11-0b01-429c-854f-9db3cdb33aaf}, !- Handle
  {47d49bfd-9882-4a16-a957-e0046f813517}, !- Zone or ZoneList Name
  SupplyAirTemperature,                   !- Zone Cooling Design Supply Air Temperature Input Method
  14,                                     !- Zone Cooling Design Supply Air Temperature {C}
  11.11,                                  !- Zone Cooling Design Supply Air Temperature Difference {deltaC}
  SupplyAirTemperature,                   !- Zone Heating Design Supply Air Temperature Input Method
  40,                                     !- Zone Heating Design Supply Air Temperature {C}
  11.11,                                  !- Zone Heating Design Supply Air Temperature Difference {deltaC}
  0.0085,                                 !- Zone Cooling Design Supply Air Humidity Ratio {kg-H2O/kg-air}
  0.008,                                  !- Zone Heating Design Supply Air Humidity Ratio {kg-H2O/kg-air}
  ,                                       !- Zone Heating Sizing Factor
  ,                                       !- Zone Cooling Sizing Factor
  DesignDay,                              !- Cooling Design Air Flow Method
  ,                                       !- Cooling Design Air Flow Rate {m3/s}
  ,                                       !- Cooling Minimum Air Flow per Zone Floor Area {m3/s-m2}
  ,                                       !- Cooling Minimum Air Flow {m3/s}
  ,                                       !- Cooling Minimum Air Flow Fraction
  DesignDay,                              !- Heating Design Air Flow Method
  ,                                       !- Heating Design Air Flow Rate {m3/s}
  ,                                       !- Heating Maximum Air Flow per Zone Floor Area {m3/s-m2}
  ,                                       !- Heating Maximum Air Flow {m3/s}
  ,                                       !- Heating Maximum Air Flow Fraction
  ,                                       !- Design Zone Air Distribution Effectiveness in Cooling Mode
  ,                                       !- Design Zone Air Distribution Effectiveness in Heating Mode
  No,                                     !- Account for Dedicated Outdoor Air System
  NeutralSupplyAir,                       !- Dedicated Outdoor Air System Control Strategy
  autosize,                               !- Dedicated Outdoor Air Low Setpoint Temperature for Design {C}
  autosize;                               !- Dedicated Outdoor Air High Setpoint Temperature for Design {C}

OS:ZoneHVAC:EquipmentList,
  {b2195085-2b91-423e-9e5c-b4ea908a34b1}, !- Handle
  Zone HVAC Equipment List 2,             !- Name
  {47d49bfd-9882-4a16-a957-e0046f813517}, !- Thermal Zone
  SequentialLoad,                         !- Load Distribution Scheme
  {00b01fc6-d53a-4403-9c94-595613346d23}, !- Zone Equipment 1
  1,                                      !- Zone Equipment Cooling Sequence 1
  1,                                      !- Zone Equipment Heating or No-Load Sequence 1
  ,                                       !- Zone Equipment Sequential Cooling Fraction 1
  ;                                       !- Zone Equipment Sequential Heating Fraction 1

OS:Space,
  {2dc3a161-cdc2-4b43-8178-0a041312d32c}, !- Handle
  living space|unit 2|story 1,            !- Name
  {5728e244-0b4a-4585-8af4-ca4a48a29711}, !- Space Type Name
  ,                                       !- Default Construction Set Name
  ,                                       !- Default Schedule Set Name
  -0,                                     !- Direction of Relative North {deg}
  0,                                      !- X Origin {m}
  0,                                      !- Y Origin {m}
  0,                                      !- Z Origin {m}
  ,                                       !- Building Story Name
  {47d49bfd-9882-4a16-a957-e0046f813517}, !- Thermal Zone Name
  ,                                       !- Part of Total Floor Area
  ,                                       !- Design Specification Outdoor Air Object Name
  {c07489a7-4b15-4b19-a8d8-6df59d690eb6}; !- Building Unit Name

OS:Surface,
  {14b0698c-26fc-4874-9c14-1bccbfb1d6ea}, !- Handle
  Surface 12,                             !- Name
  Wall,                                   !- Surface Type
  ,                                       !- Construction Name
  {2dc3a161-cdc2-4b43-8178-0a041312d32c}, !- Space Name
  Outdoors,                               !- Outside Boundary Condition
  ,                                       !- Outside Boundary Condition Object
  SunExposed,                             !- Sun Exposure
  WindExposed,                            !- Wind Exposure
  ,                                       !- View Factor to Ground
  ,                                       !- Number of Vertices
  6.46578440716979, -12.9315688143396, 2.4384, !- X,Y,Z Vertex 1 {m}
  6.46578440716979, -12.9315688143396, 0, !- X,Y,Z Vertex 2 {m}
  12.9315688143396, -12.9315688143396, 0, !- X,Y,Z Vertex 3 {m}
  12.9315688143396, -12.9315688143396, 2.4384; !- X,Y,Z Vertex 4 {m}

OS:Surface,
  {c9fb23ec-1fe0-4548-90fe-d280df68f1b4}, !- Handle
  Surface 13,                             !- Name
  Wall,                                   !- Surface Type
  ,                                       !- Construction Name
  {2dc3a161-cdc2-4b43-8178-0a041312d32c}, !- Space Name
  Surface,                                !- Outside Boundary Condition
  {7ad6ba0c-35a0-4ae7-beb5-e9592d8d3bc8}, !- Outside Boundary Condition Object
  NoSun,                                  !- Sun Exposure
  NoWind,                                 !- Wind Exposure
  ,                                       !- View Factor to Ground
  ,                                       !- Number of Vertices
  6.46578440716979, 0, 2.4384,            !- X,Y,Z Vertex 1 {m}
  6.46578440716979, 0, 0,                 !- X,Y,Z Vertex 2 {m}
  6.46578440716979, -12.9315688143396, 0, !- X,Y,Z Vertex 3 {m}
  6.46578440716979, -12.9315688143396, 2.4384; !- X,Y,Z Vertex 4 {m}

OS:Surface,
  {c3bc0f7b-7785-46ee-839c-32a58f7d70da}, !- Handle
  Surface 14,                             !- Name
  Wall,                                   !- Surface Type
  ,                                       !- Construction Name
  {2dc3a161-cdc2-4b43-8178-0a041312d32c}, !- Space Name
  Outdoors,                               !- Outside Boundary Condition
  ,                                       !- Outside Boundary Condition Object
  SunExposed,                             !- Sun Exposure
  WindExposed,                            !- Wind Exposure
  ,                                       !- View Factor to Ground
  ,                                       !- Number of Vertices
  12.9315688143396, 0, 2.4384,            !- X,Y,Z Vertex 1 {m}
  12.9315688143396, 0, 0,                 !- X,Y,Z Vertex 2 {m}
  6.46578440716979, 0, 0,                 !- X,Y,Z Vertex 3 {m}
  6.46578440716979, 0, 2.4384;            !- X,Y,Z Vertex 4 {m}

OS:Surface,
  {81c373c8-6217-4c3e-b818-3c5b808f0412}, !- Handle
  Surface 15,                             !- Name
  Floor,                                  !- Surface Type
  ,                                       !- Construction Name
  {2dc3a161-cdc2-4b43-8178-0a041312d32c}, !- Space Name
  Foundation,                             !- Outside Boundary Condition
  ,                                       !- Outside Boundary Condition Object
  NoSun,                                  !- Sun Exposure
  NoWind,                                 !- Wind Exposure
  ,                                       !- View Factor to Ground
  ,                                       !- Number of Vertices
  6.46578440716979, -12.9315688143396, 0, !- X,Y,Z Vertex 1 {m}
  6.46578440716979, 0, 0,                 !- X,Y,Z Vertex 2 {m}
  12.9315688143396, 0, 0,                 !- X,Y,Z Vertex 3 {m}
  12.9315688143396, -12.9315688143396, 0; !- X,Y,Z Vertex 4 {m}

OS:Surface,
  {c98e740e-d555-40be-a63f-8f08f348be3b}, !- Handle
  Surface 16,                             !- Name
  Wall,                                   !- Surface Type
  ,                                       !- Construction Name
  {2dc3a161-cdc2-4b43-8178-0a041312d32c}, !- Space Name
  Surface,                                !- Outside Boundary Condition
  {1462b3ac-95e6-4134-bb76-7ba70873af5b}, !- Outside Boundary Condition Object
  NoSun,                                  !- Sun Exposure
  NoWind,                                 !- Wind Exposure
  ,                                       !- View Factor to Ground
  ,                                       !- Number of Vertices
  12.9315688143396, -12.9315688143396, 2.4384, !- X,Y,Z Vertex 1 {m}
  12.9315688143396, -12.9315688143396, 0, !- X,Y,Z Vertex 2 {m}
  12.9315688143396, 0, 0,                 !- X,Y,Z Vertex 3 {m}
  12.9315688143396, 0, 2.4384;            !- X,Y,Z Vertex 4 {m}

OS:Surface,
  {3832fe88-7ebe-4445-834e-e54b8febad9a}, !- Handle
  Surface 17,                             !- Name
  RoofCeiling,                            !- Surface Type
  ,                                       !- Construction Name
  {2dc3a161-cdc2-4b43-8178-0a041312d32c}, !- Space Name
  Surface,                                !- Outside Boundary Condition
  {51c90fd6-98a6-471f-9381-52d62249e177}, !- Outside Boundary Condition Object
  NoSun,                                  !- Sun Exposure
  NoWind,                                 !- Wind Exposure
  ,                                       !- View Factor to Ground
  ,                                       !- Number of Vertices
  12.9315688143396, -12.9315688143396, 2.4384, !- X,Y,Z Vertex 1 {m}
  12.9315688143396, 0, 2.4384,            !- X,Y,Z Vertex 2 {m}
  6.46578440716979, 0, 2.4384,            !- X,Y,Z Vertex 3 {m}
  6.46578440716979, -12.9315688143396, 2.4384; !- X,Y,Z Vertex 4 {m}

OS:ThermalZone,
  {6fb28d1e-f639-486a-adc1-4b581b6e13e3}, !- Handle
  living zone|unit 3,                     !- Name
  ,                                       !- Multiplier
  ,                                       !- Ceiling Height {m}
  ,                                       !- Volume {m3}
  ,                                       !- Floor Area {m2}
  ,                                       !- Zone Inside Convection Algorithm
  ,                                       !- Zone Outside Convection Algorithm
  ,                                       !- Zone Conditioning Equipment List Name
  {ab321a11-6ff6-4fc0-8fac-ffc387e8517c}, !- Zone Air Inlet Port List
  {e4a8a74e-97e3-4e05-8b88-71ef9b82970d}, !- Zone Air Exhaust Port List
  {fe0b98be-0cac-40a1-8020-5cef34059bf0}, !- Zone Air Node Name
  {5162ed52-ff31-4ab4-870d-0af2b8cc42db}, !- Zone Return Air Port List
  ,                                       !- Primary Daylighting Control Name
  ,                                       !- Fraction of Zone Controlled by Primary Daylighting Control
  ,                                       !- Secondary Daylighting Control Name
  ,                                       !- Fraction of Zone Controlled by Secondary Daylighting Control
  ,                                       !- Illuminance Map Name
  ,                                       !- Group Rendering Name
  ,                                       !- Thermostat Name
  No;                                     !- Use Ideal Air Loads

OS:Node,
  {06886d16-6bc3-4649-b33a-460748cafa60}, !- Handle
  Node 3,                                 !- Name