!- NOTE: Auto-generated from /test/osw_files/SFA_4units_1story_SL_UA_3Beds_2Baths_Denver_Central_System_PTAC.osw

OS:Version,
  {d47a4636-106a-4a97-a708-57aaae961fab}, !- Handle
  2.8.1;                                  !- Version Identifier

OS:SimulationControl,
  {06b07967-cceb-40eb-8d92-d8784f37da53}, !- Handle
  ,                                       !- Do Zone Sizing Calculation
  ,                                       !- Do System Sizing Calculation
  ,                                       !- Do Plant Sizing Calculation
  Yes;                                    !- Run Simulation for Sizing Periods

OS:Timestep,
  {81b78ee2-dfc7-43b3-8159-bb7873728822}, !- Handle
  6;                                      !- Number of Timesteps per Hour

OS:ShadowCalculation,
  {9cf3b7c2-f5e2-4d8a-8306-68a9a0111755}, !- Handle
  20,                                     !- Calculation Frequency
  200;                                    !- Maximum Figures in Shadow Overlap Calculations

OS:SurfaceConvectionAlgorithm:Outside,
  {27d0a668-8499-4649-be82-237e8d6cee42}, !- Handle
  DOE-2;                                  !- Algorithm

OS:SurfaceConvectionAlgorithm:Inside,
  {fc58ba2f-9485-41f8-9d98-16e9294790e7}, !- Handle
  TARP;                                   !- Algorithm

OS:ZoneCapacitanceMultiplier:ResearchSpecial,
  {093c6a2e-30ee-467b-a313-e13ff842ac32}, !- Handle
  ,                                       !- Temperature Capacity Multiplier
  15,                                     !- Humidity Capacity Multiplier
  ;                                       !- Carbon Dioxide Capacity Multiplier

OS:RunPeriod,
  {b0942177-0363-49c5-9f17-36fe21daf51d}, !- Handle
  Run Period 1,                           !- Name
  1,                                      !- Begin Month
  1,                                      !- Begin Day of Month
  12,                                     !- End Month
  31,                                     !- End Day of Month
  ,                                       !- Use Weather File Holidays and Special Days
  ,                                       !- Use Weather File Daylight Saving Period
  ,                                       !- Apply Weekend Holiday Rule
  ,                                       !- Use Weather File Rain Indicators
  ,                                       !- Use Weather File Snow Indicators
  ;                                       !- Number of Times Runperiod to be Repeated

OS:YearDescription,
  {b93fe230-a4e3-4404-92f8-566359c38b95}, !- Handle
  2007,                                   !- Calendar Year
  ,                                       !- Day of Week for Start Day
  ;                                       !- Is Leap Year

OS:ThermalZone,
  {49b823a7-8490-4df7-a686-b4bfdb214d3f}, !- Handle
  living zone,                            !- Name
  ,                                       !- Multiplier
  ,                                       !- Ceiling Height {m}
  ,                                       !- Volume {m3}
  ,                                       !- Floor Area {m2}
  ,                                       !- Zone Inside Convection Algorithm
  ,                                       !- Zone Outside Convection Algorithm
  ,                                       !- Zone Conditioning Equipment List Name
  {409e39fb-9f1e-4b47-a4e1-290fe563f60d}, !- Zone Air Inlet Port List
  {baef8602-0ce2-429f-84e3-eb425938f736}, !- Zone Air Exhaust Port List
  {5151f722-9108-48eb-b8a9-60409f74fe6d}, !- Zone Air Node Name
  {0b7b8ddf-1614-4473-983c-b088c9395972}, !- Zone Return Air Port List
  ,                                       !- Primary Daylighting Control Name
  ,                                       !- Fraction of Zone Controlled by Primary Daylighting Control
  ,                                       !- Secondary Daylighting Control Name
  ,                                       !- Fraction of Zone Controlled by Secondary Daylighting Control
  ,                                       !- Illuminance Map Name
  ,                                       !- Group Rendering Name
  {0bbad101-4f87-4522-8d40-802ef1bcc7a6}, !- Thermostat Name
  No;                                     !- Use Ideal Air Loads

OS:Node,
  {018f14f6-098a-48ae-bde9-a80e30b1a291}, !- Handle
  Node 1,                                 !- Name
  {5151f722-9108-48eb-b8a9-60409f74fe6d}, !- Inlet Port
  ;                                       !- Outlet Port

OS:Connection,
  {5151f722-9108-48eb-b8a9-60409f74fe6d}, !- Handle
  {cd0a3651-8630-455c-8484-181b00b5f125}, !- Name
  {49b823a7-8490-4df7-a686-b4bfdb214d3f}, !- Source Object
  11,                                     !- Outlet Port
  {018f14f6-098a-48ae-bde9-a80e30b1a291}, !- Target Object
  2;                                      !- Inlet Port

OS:PortList,
  {409e39fb-9f1e-4b47-a4e1-290fe563f60d}, !- Handle
  {216380f4-7b74-4be0-bb88-07cadbae50c8}, !- Name
  {49b823a7-8490-4df7-a686-b4bfdb214d3f}, !- HVAC Component
  {00a79bc0-f817-414d-abdf-711a6035b703}; !- Port 1

OS:PortList,
  {baef8602-0ce2-429f-84e3-eb425938f736}, !- Handle
  {5b9bbd50-6027-4968-bc84-2a3676aa8061}, !- Name
  {49b823a7-8490-4df7-a686-b4bfdb214d3f}, !- HVAC Component
  {acd4f82d-ab24-4779-8fbb-e56d2d25601e}; !- Port 1

OS:PortList,
  {0b7b8ddf-1614-4473-983c-b088c9395972}, !- Handle
  {752022c2-b7e9-4107-ab5b-402d4521b415}, !- Name
  {49b823a7-8490-4df7-a686-b4bfdb214d3f}; !- HVAC Component

OS:Sizing:Zone,
  {156a998b-113d-4451-bb02-712ff2575e0e}, !- Handle
  {49b823a7-8490-4df7-a686-b4bfdb214d3f}, !- Zone or ZoneList Name
  SupplyAirTemperature,                   !- Zone Cooling Design Supply Air Temperature Input Method
  13.8888888888889,                       !- Zone Cooling Design Supply Air Temperature {C}
  11.11,                                  !- Zone Cooling Design Supply Air Temperature Difference {deltaC}
  SupplyAirTemperature,                   !- Zone Heating Design Supply Air Temperature Input Method
  50.0000000000001,                       !- Zone Heating Design Supply Air Temperature {C}
  11.11,                                  !- Zone Heating Design Supply Air Temperature Difference {deltaC}
  0.008,                                  !- Zone Cooling Design Supply Air Humidity Ratio {kg-H2O/kg-air}
  0.008,                                  !- Zone Heating Design Supply Air Humidity Ratio {kg-H2O/kg-air}
  ,                                       !- Zone Heating Sizing Factor
  ,                                       !- Zone Cooling Sizing Factor
  DesignDay,                              !- Cooling Design Air Flow Method
  ,                                       !- Cooling Design Air Flow Rate {m3/s}
  ,                                       !- Cooling Minimum Air Flow per Zone Floor Area {m3/s-m2}
  ,                                       !- Cooling Minimum Air Flow {m3/s}
  ,                                       !- Cooling Minimum Air Flow Fraction
  DesignDay,                              !- Heating Design Air Flow Method
  ,                                       !- Heating Design Air Flow Rate {m3/s}
  ,                                       !- Heating Maximum Air Flow per Zone Floor Area {m3/s-m2}
  ,                                       !- Heating Maximum Air Flow {m3/s}
  ,                                       !- Heating Maximum Air Flow Fraction
  ,                                       !- Design Zone Air Distribution Effectiveness in Cooling Mode
  ,                                       !- Design Zone Air Distribution Effectiveness in Heating Mode
  No,                                     !- Account for Dedicated Outdoor Air System
  NeutralSupplyAir,                       !- Dedicated Outdoor Air System Control Strategy
  autosize,                               !- Dedicated Outdoor Air Low Setpoint Temperature for Design {C}
  autosize;                               !- Dedicated Outdoor Air High Setpoint Temperature for Design {C}

OS:ZoneHVAC:EquipmentList,
  {eeda92c1-5af5-42cc-86c0-bc3466af1cd5}, !- Handle
  Zone HVAC Equipment List 1,             !- Name
  {49b823a7-8490-4df7-a686-b4bfdb214d3f}, !- Thermal Zone
  ,                                       !- Load Distribution Scheme
  {1a1dbf97-7f20-4d59-b68d-001b0f1aed74}, !- Zone Equipment 1
  1,                                      !- Zone Equipment Cooling Sequence 1
  1,                                      !- Zone Equipment Heating or No-Load Sequence 1
  ,                                       !- Zone Equipment Sequential Cooling Fraction 1
  ;                                       !- Zone Equipment Sequential Heating Fraction 1

OS:Space,
  {185763f7-c0f5-4220-82c9-ce77112ebb15}, !- Handle
  living space,                           !- Name
  {60d21446-b9f3-46b4-be06-dd2c2df8749d}, !- Space Type Name
  ,                                       !- Default Construction Set Name
  ,                                       !- Default Schedule Set Name
  ,                                       !- Direction of Relative North {deg}
  ,                                       !- X Origin {m}
  ,                                       !- Y Origin {m}
  ,                                       !- Z Origin {m}
  ,                                       !- Building Story Name
  {49b823a7-8490-4df7-a686-b4bfdb214d3f}, !- Thermal Zone Name
  ,                                       !- Part of Total Floor Area
  ,                                       !- Design Specification Outdoor Air Object Name
  {280e927c-83be-43d8-89ef-20b5d10d4aa1}; !- Building Unit Name

OS:Surface,
  {4567d4ac-4978-46c9-bd92-1fcf7a42db80}, !- Handle
  Surface 1,                              !- Name
  Floor,                                  !- Surface Type
  ,                                       !- Construction Name
  {185763f7-c0f5-4220-82c9-ce77112ebb15}, !- Space Name
  Foundation,                             !- Outside Boundary Condition
  ,                                       !- Outside Boundary Condition Object
  NoSun,                                  !- Sun Exposure
  NoWind,                                 !- Wind Exposure
  ,                                       !- View Factor to Ground
  ,                                       !- Number of Vertices
  0, -12.9315688143396, 0,                !- X,Y,Z Vertex 1 {m}
  0, 0, 0,                                !- X,Y,Z Vertex 2 {m}
  6.46578440716979, 0, 0,                 !- X,Y,Z Vertex 3 {m}
  6.46578440716979, -12.9315688143396, 0; !- X,Y,Z Vertex 4 {m}

OS:Surface,
  {8084593f-57f0-4864-9478-befc095ac1ac}, !- Handle
  Surface 2,                              !- Name
  Wall,                                   !- Surface Type
  ,                                       !- Construction Name
  {185763f7-c0f5-4220-82c9-ce77112ebb15}, !- Space Name
  Outdoors,                               !- Outside Boundary Condition
  ,                                       !- Outside Boundary Condition Object
  SunExposed,                             !- Sun Exposure
  WindExposed,                            !- Wind Exposure
  ,                                       !- View Factor to Ground
  ,                                       !- Number of Vertices
  0, 0, 2.4384,                           !- X,Y,Z Vertex 1 {m}
  0, 0, 0,                                !- X,Y,Z Vertex 2 {m}
  0, -12.9315688143396, 0,                !- X,Y,Z Vertex 3 {m}
  0, -12.9315688143396, 2.4384;           !- X,Y,Z Vertex 4 {m}

OS:Surface,
  {5cd30ea8-f44e-452b-8085-aaf160617c06}, !- Handle
  Surface 3,                              !- Name
  Wall,                                   !- Surface Type
  ,                                       !- Construction Name
  {185763f7-c0f5-4220-82c9-ce77112ebb15}, !- Space Name
  Outdoors,                               !- Outside Boundary Condition
  ,                                       !- Outside Boundary Condition Object
  SunExposed,                             !- Sun Exposure
  WindExposed,                            !- Wind Exposure
  ,                                       !- View Factor to Ground
  ,                                       !- Number of Vertices
  6.46578440716979, 0, 2.4384,            !- X,Y,Z Vertex 1 {m}
  6.46578440716979, 0, 0,                 !- X,Y,Z Vertex 2 {m}
  0, 0, 0,                                !- X,Y,Z Vertex 3 {m}
  0, 0, 2.4384;                           !- X,Y,Z Vertex 4 {m}

OS:Surface,
  {c2100728-09c2-4c8f-80d6-bac8f922e022}, !- Handle
  Surface 4,                              !- Name
  Wall,                                   !- Surface Type
  ,                                       !- Construction Name
  {185763f7-c0f5-4220-82c9-ce77112ebb15}, !- Space Name
  Surface,                                !- Outside Boundary Condition
  {3457ae4d-0c54-4749-847e-364e4b63bba9}, !- Outside Boundary Condition Object
  NoSun,                                  !- Sun Exposure
  NoWind,                                 !- Wind Exposure
  ,                                       !- View Factor to Ground
  ,                                       !- Number of Vertices
  6.46578440716979, -12.9315688143396, 2.4384, !- X,Y,Z Vertex 1 {m}
  6.46578440716979, -12.9315688143396, 0, !- X,Y,Z Vertex 2 {m}
  6.46578440716979, 0, 0,                 !- X,Y,Z Vertex 3 {m}
  6.46578440716979, 0, 2.4384;            !- X,Y,Z Vertex 4 {m}

OS:Surface,
  {4e61c7c0-ff88-4b43-8a99-c4def105d7d8}, !- Handle
  Surface 5,                              !- Name
  Wall,                                   !- Surface Type
  ,                                       !- Construction Name
  {185763f7-c0f5-4220-82c9-ce77112ebb15}, !- Space Name
  Outdoors,                               !- Outside Boundary Condition
  ,                                       !- Outside Boundary Condition Object
  SunExposed,                             !- Sun Exposure
  WindExposed,                            !- Wind Exposure
  ,                                       !- View Factor to Ground
  ,                                       !- Number of Vertices
  0, -12.9315688143396, 2.4384,           !- X,Y,Z Vertex 1 {m}
  0, -12.9315688143396, 0,                !- X,Y,Z Vertex 2 {m}
  6.46578440716979, -12.9315688143396, 0, !- X,Y,Z Vertex 3 {m}
  6.46578440716979, -12.9315688143396, 2.4384; !- X,Y,Z Vertex 4 {m}

OS:Surface,
  {0f004eeb-cc8d-4acb-9c4e-6c15622310b0}, !- Handle
  Surface 6,                              !- Name
  RoofCeiling,                            !- Surface Type
  ,                                       !- Construction Name
  {185763f7-c0f5-4220-82c9-ce77112ebb15}, !- Space Name
  Surface,                                !- Outside Boundary Condition
  {fbe2fac4-a903-4b70-86ac-fac865af8141}, !- Outside Boundary Condition Object
  NoSun,                                  !- Sun Exposure
  NoWind,                                 !- Wind Exposure
  ,                                       !- View Factor to Ground
  ,                                       !- Number of Vertices
  6.46578440716979, -12.9315688143396, 2.4384, !- X,Y,Z Vertex 1 {m}
  6.46578440716979, 0, 2.4384,            !- X,Y,Z Vertex 2 {m}
  0, 0, 2.4384,                           !- X,Y,Z Vertex 3 {m}
  0, -12.9315688143396, 2.4384;           !- X,Y,Z Vertex 4 {m}

OS:SpaceType,
  {60d21446-b9f3-46b4-be06-dd2c2df8749d}, !- Handle
  Space Type 1,                           !- Name
  ,                                       !- Default Construction Set Name
  ,                                       !- Default Schedule Set Name
  ,                                       !- Group Rendering Name
  ,                                       !- Design Specification Outdoor Air Object Name
  ,                                       !- Standards Template
  ,                                       !- Standards Building Type
  living;                                 !- Standards Space Type

OS:ThermalZone,
  {5db10fdb-0d21-403e-9c98-bb4a11de255c}, !- Handle
  living zone|unit 2,                     !- Name
  ,                                       !- Multiplier
  ,                                       !- Ceiling Height {m}
  ,                                       !- Volume {m3}
  ,                                       !- Floor Area {m2}
  ,                                       !- Zone Inside Convection Algorithm
  ,                                       !- Zone Outside Convection Algorithm
  ,                                       !- Zone Conditioning Equipment List Name
  {e673ad55-f074-4634-9834-166efbfff0d5}, !- Zone Air Inlet Port List
  {aa987231-11f8-4c0d-884e-2cd6d2e686a7}, !- Zone Air Exhaust Port List
  {1a220dab-105d-42ac-a954-8e6c91ad2b5c}, !- Zone Air Node Name
  {f7a9ce92-8c34-420b-8586-f25439d8a060}, !- Zone Return Air Port List
  ,                                       !- Primary Daylighting Control Name
  ,                                       !- Fraction of Zone Controlled by Primary Daylighting Control
  ,                                       !- Secondary Daylighting Control Name
  ,                                       !- Fraction of Zone Controlled by Secondary Daylighting Control
  ,                                       !- Illuminance Map Name
  ,                                       !- Group Rendering Name
  {9cb5e0f6-434d-4e77-acb0-d0f07fe34861}, !- Thermostat Name
  No;                                     !- Use Ideal Air Loads

OS:Node,
  {fce382a9-d4ff-40fb-ae01-a8c93d702198}, !- Handle
  Node 2,                                 !- Name
  {1a220dab-105d-42ac-a954-8e6c91ad2b5c}, !- Inlet Port
  ;                                       !- Outlet Port

OS:Connection,
  {1a220dab-105d-42ac-a954-8e6c91ad2b5c}, !- Handle
  {d0ae9d99-745e-4c27-952f-d44673ead456}, !- Name
  {5db10fdb-0d21-403e-9c98-bb4a11de255c}, !- Source Object
  11,                                     !- Outlet Port
  {fce382a9-d4ff-40fb-ae01-a8c93d702198}, !- Target Object
  2;                                      !- Inlet Port

OS:PortList,
  {e673ad55-f074-4634-9834-166efbfff0d5}, !- Handle
  {c48ac26f-147c-4f12-9915-2e986e00fdc9}, !- Name
  {5db10fdb-0d21-403e-9c98-bb4a11de255c}, !- HVAC Component
  {2c612703-6df1-4778-b26c-1a79ff63d78e}; !- Port 1

OS:PortList,
  {aa987231-11f8-4c0d-884e-2cd6d2e686a7}, !- Handle
  {7b790265-c38a-431a-9e15-58f599ff3efd}, !- Name
  {5db10fdb-0d21-403e-9c98-bb4a11de255c}, !- HVAC Component
  {6e2c40f9-423a-46e6-b7bf-a3bc44c249a1}; !- Port 1

OS:PortList,
  {f7a9ce92-8c34-420b-8586-f25439d8a060}, !- Handle
  {dbbdd6f3-6294-4245-ae17-19a7f9960eac}, !- Name
  {5db10fdb-0d21-403e-9c98-bb4a11de255c}; !- HVAC Component

OS:Sizing:Zone,
  {ffeb2978-5070-43ee-b9e5-37428cb1974d}, !- Handle
  {5db10fdb-0d21-403e-9c98-bb4a11de255c}, !- Zone or ZoneList Name
  SupplyAirTemperature,                   !- Zone Cooling Design Supply Air Temperature Input Method
  13.8888888888889,                       !- Zone Cooling Design Supply Air Temperature {C}
  11.11,                                  !- Zone Cooling Design Supply Air Temperature Difference {deltaC}
  SupplyAirTemperature,                   !- Zone Heating Design Supply Air Temperature Input Method
  50.0000000000001,                       !- Zone Heating Design Supply Air Temperature {C}
  11.11,                                  !- Zone Heating Design Supply Air Temperature Difference {deltaC}
  0.008,                                  !- Zone Cooling Design Supply Air Humidity Ratio {kg-H2O/kg-air}
  0.008,                                  !- Zone Heating Design Supply Air Humidity Ratio {kg-H2O/kg-air}
  ,                                       !- Zone Heating Sizing Factor
  ,                                       !- Zone Cooling Sizing Factor
  DesignDay,                              !- Cooling Design Air Flow Method
  ,                                       !- Cooling Design Air Flow Rate {m3/s}
  ,                                       !- Cooling Minimum Air Flow per Zone Floor Area {m3/s-m2}
  ,                                       !- Cooling Minimum Air Flow {m3/s}
  ,                                       !- Cooling Minimum Air Flow Fraction
  DesignDay,                              !- Heating Design Air Flow Method
  ,                                       !- Heating Design Air Flow Rate {m3/s}
  ,                                       !- Heating Maximum Air Flow per Zone Floor Area {m3/s-m2}
  ,                                       !- Heating Maximum Air Flow {m3/s}
  ,                                       !- Heating Maximum Air Flow Fraction
  ,                                       !- Design Zone Air Distribution Effectiveness in Cooling Mode
  ,                                       !- Design Zone Air Distribution Effectiveness in Heating Mode
  No,                                     !- Account for Dedicated Outdoor Air System
  NeutralSupplyAir,                       !- Dedicated Outdoor Air System Control Strategy
  autosize,                               !- Dedicated Outdoor Air Low Setpoint Temperature for Design {C}
  autosize;                               !- Dedicated Outdoor Air High Setpoint Temperature for Design {C}

OS:ZoneHVAC:EquipmentList,
  {c95b4d0e-d2f3-4c19-abf5-aad2e5183f3d}, !- Handle
  Zone HVAC Equipment List 2,             !- Name
  {5db10fdb-0d21-403e-9c98-bb4a11de255c}, !- Thermal Zone
  ,                                       !- Load Distribution Scheme
  {59a86869-a278-4924-ae12-d5fa6ff81dd4}, !- Zone Equipment 1
  1,                                      !- Zone Equipment Cooling Sequence 1
  1,                                      !- Zone Equipment Heating or No-Load Sequence 1
  ,                                       !- Zone Equipment Sequential Cooling Fraction 1
  ;                                       !- Zone Equipment Sequential Heating Fraction 1

OS:Space,
  {ec2cf211-e199-4775-8db3-8eb17cf2099d}, !- Handle
  living space|unit 2|story 1,            !- Name
  {60d21446-b9f3-46b4-be06-dd2c2df8749d}, !- Space Type Name
  ,                                       !- Default Construction Set Name
  ,                                       !- Default Schedule Set Name
  -0,                                     !- Direction of Relative North {deg}
  0,                                      !- X Origin {m}
  0,                                      !- Y Origin {m}
  0,                                      !- Z Origin {m}
  ,                                       !- Building Story Name
  {5db10fdb-0d21-403e-9c98-bb4a11de255c}, !- Thermal Zone Name
  ,                                       !- Part of Total Floor Area
  ,                                       !- Design Specification Outdoor Air Object Name
  {1adec207-3d28-41fa-9907-7d0ed3f97044}; !- Building Unit Name

OS:Surface,
  {c7c24344-6439-4fb0-8055-0611c59a440f}, !- Handle
  Surface 12,                             !- Name
  RoofCeiling,                            !- Surface Type
  ,                                       !- Construction Name
  {ec2cf211-e199-4775-8db3-8eb17cf2099d}, !- Space Name
  Surface,                                !- Outside Boundary Condition
  {cf4b87fa-2c86-42fa-8e03-779d42af6da0}, !- Outside Boundary Condition Object
  NoSun,                                  !- Sun Exposure
  NoWind,                                 !- Wind Exposure
  ,                                       !- View Factor to Ground
  ,                                       !- Number of Vertices
  12.9315688143396, -12.9315688143396, 2.4384, !- X,Y,Z Vertex 1 {m}
  12.9315688143396, 0, 2.4384,            !- X,Y,Z Vertex 2 {m}
  6.46578440716979, 0, 2.4384,            !- X,Y,Z Vertex 3 {m}
  6.46578440716979, -12.9315688143396, 2.4384; !- X,Y,Z Vertex 4 {m}

OS:Surface,
  {3457ae4d-0c54-4749-847e-364e4b63bba9}, !- Handle
  Surface 13,                             !- Name
  Wall,                                   !- Surface Type
  ,                                       !- Construction Name
  {ec2cf211-e199-4775-8db3-8eb17cf2099d}, !- Space Name
  Surface,                                !- Outside Boundary Condition
  {c2100728-09c2-4c8f-80d6-bac8f922e022}, !- Outside Boundary Condition Object
  NoSun,                                  !- Sun Exposure
  NoWind,                                 !- Wind Exposure
  ,                                       !- View Factor to Ground
  ,                                       !- Number of Vertices
  6.46578440716979, 0, 2.4384,            !- X,Y,Z Vertex 1 {m}
  6.46578440716979, 0, 0,                 !- X,Y,Z Vertex 2 {m}
  6.46578440716979, -12.9315688143396, 0, !- X,Y,Z Vertex 3 {m}
  6.46578440716979, -12.9315688143396, 2.4384; !- X,Y,Z Vertex 4 {m}

OS:Surface,
  {7123638c-1dda-4fd8-bfeb-93ed035b427e}, !- Handle
  Surface 14,                             !- Name
  Wall,                                   !- Surface Type
  ,                                       !- Construction Name
  {ec2cf211-e199-4775-8db3-8eb17cf2099d}, !- Space Name
  Surface,                                !- Outside Boundary Condition
  {5830fa28-cb05-41cd-8ce2-57f7b64a94ab}, !- Outside Boundary Condition Object
  NoSun,                                  !- Sun Exposure
  NoWind,                                 !- Wind Exposure
  ,                                       !- View Factor to Ground
  ,                                       !- Number of Vertices
  12.9315688143396, -12.9315688143396, 2.4384, !- X,Y,Z Vertex 1 {m}
  12.9315688143396, -12.9315688143396, 0, !- X,Y,Z Vertex 2 {m}
  12.9315688143396, 0, 0,                 !- X,Y,Z Vertex 3 {m}
  12.9315688143396, 0, 2.4384;            !- X,Y,Z Vertex 4 {m}

OS:Surface,
  {1477881a-cce5-44db-8713-0fffcda7ad80}, !- Handle
  Surface 15,                             !- Name
  Wall,                                   !- Surface Type
  ,                                       !- Construction Name
  {ec2cf211-e199-4775-8db3-8eb17cf2099d}, !- Space Name
  Outdoors,                               !- Outside Boundary Condition
  ,                                       !- Outside Boundary Condition Object
  SunExposed,                             !- Sun Exposure
  WindExposed,                            !- Wind Exposure
  ,                                       !- View Factor to Ground
  ,                                       !- Number of Vertices
  12.9315688143396, 0, 2.4384,            !- X,Y,Z Vertex 1 {m}
  12.9315688143396, 0, 0,                 !- X,Y,Z Vertex 2 {m}
  6.46578440716979, 0, 0,                 !- X,Y,Z Vertex 3 {m}
  6.46578440716979, 0, 2.4384;            !- X,Y,Z Vertex 4 {m}

OS:Surface,
  {806b0677-6654-4e36-863b-fe8fb43e5d16}, !- Handle
  Surface 16,                             !- Name
  Floor,                                  !- Surface Type
  ,                                       !- Construction Name
  {ec2cf211-e199-4775-8db3-8eb17cf2099d}, !- Space Name
  Foundation,                             !- Outside Boundary Condition
  ,                                       !- Outside Boundary Condition Object
  NoSun,                                  !- Sun Exposure
  NoWind,                                 !- Wind Exposure
  ,                                       !- View Factor to Ground
  ,                                       !- Number of Vertices
  6.46578440716979, -12.9315688143396, 0, !- X,Y,Z Vertex 1 {m}
  6.46578440716979, 0, 0,                 !- X,Y,Z Vertex 2 {m}
  12.9315688143396, 0, 0,                 !- X,Y,Z Vertex 3 {m}
  12.9315688143396, -12.9315688143396, 0; !- X,Y,Z Vertex 4 {m}

OS:Surface,
  {65ac8e4b-8b83-4d94-914f-250902a1b6dd}, !- Handle
  Surface 17,                             !- Name
  Wall,                                   !- Surface Type
  ,                                       !- Construction Name
  {ec2cf211-e199-4775-8db3-8eb17cf2099d}, !- Space Name
  Outdoors,                               !- Outside Boundary Condition
  ,                                       !- Outside Boundary Condition Object
  SunExposed,                             !- Sun Exposure
  WindExposed,                            !- Wind Exposure
  ,                                       !- View Factor to Ground
  ,                                       !- Number of Vertices
  6.46578440716979, -12.9315688143396, 2.4384, !- X,Y,Z Vertex 1 {m}
  6.46578440716979, -12.9315688143396, 0, !- X,Y,Z Vertex 2 {m}
  12.9315688143396, -12.9315688143396, 0, !- X,Y,Z Vertex 3 {m}
  12.9315688143396, -12.9315688143396, 2.4384; !- X,Y,Z Vertex 4 {m}

OS:ThermalZone,
  {6df39fe5-7d5c-4ab7-b2c8-af781d8a89d4}, !- Handle
  living zone|unit 3,                     !- Name
  ,                                       !- Multiplier
  ,                                       !- Ceiling Height {m}
  ,                                       !- Volume {m3}
  ,                                       !- Floor Area {m2}
  ,                                       !- Zone Inside Convection Algorithm
  ,                                       !- Zone Outside Convection Algorithm
  ,                                       !- Zone Conditioning Equipment List Name
  {b8a9f9cf-41f8-40f4-9ed5-92e8b634e744}, !- Zone Air Inlet Port List
  {f01ff890-d388-4590-88b0-a7362b50bbf1}, !- Zone Air Exhaust Port List
  {fde8f797-f7e2-43a0-b3df-d95d38f0afc5}, !- Zone Air Node Name
  {2d3f2031-5b94-4c1a-977d-3173e182e38f}, !- Zone Return Air Port List
  ,                                       !- Primary Daylighting Control Name
  ,                                       !- Fraction of Zone Controlled by Primary Daylighting Control
  ,                                       !- Secondary Daylighting Control Name
  ,                                       !- Fraction of Zone Controlled by Secondary Daylighting Control
  ,                                       !- Illuminance Map Name
  ,                                       !- Group Rendering Name
  {1df4988d-94ea-4857-8383-60a71121608e}, !- Thermostat Name
  No;                                     !- Use Ideal Air Loads

OS:Node,
  {63f1e70e-2a8d-462f-8a9b-231eb040012a}, !- Handle
  Node 3,                                 !- Name