!- NOTE: Auto-generated from /test/osw_files/SFA_4units_1story_SL_UA_3Beds_2Baths_Denver_GSHPVertBore.osw

OS:Version,
  {5608f6eb-5312-4999-9785-bd25c09df9c8}, !- Handle
  2.7.1;                                  !- Version Identifier

OS:Building,
  {7115b903-448d-4889-bb06-1ad4991e1098}, !- Handle
  Building 1,                             !- Name
  ,                                       !- Building Sector Type
  0,                                      !- North Axis {deg}
  ,                                       !- Nominal Floor to Floor Height {m}
  ,                                       !- Space Type Name
  ,                                       !- Default Construction Set Name
  ,                                       !- Default Schedule Set Name
  1,                                      !- Standards Number of Stories
  1,                                      !- Standards Number of Above Ground Stories
  ,                                       !- Standards Template
  singlefamilyattached,                   !- Standards Building Type
  4;                                      !- Standards Number of Living Units

OS:Facility,
  {e7a3c7bd-4efc-4547-b367-e2ae5d7a32f6}; !- Handle

OS:Site,
  {aaa62dfb-24bb-4b3e-8e2b-7c3e223f1f18}, !- Handle
  Denver Intl Ap_CO_USA,                  !- Name
  39.83,                                  !- Latitude {deg}
  -104.65,                                !- Longitude {deg}
  -7,                                     !- Time Zone {hr}
  1650,                                   !- Elevation {m}
  ;                                       !- Terrain

OS:SimulationControl,
  {34173409-c4c6-4418-9188-3fa4ff0a6048}, !- Handle
  ,                                       !- Do Zone Sizing Calculation
  ,                                       !- Do System Sizing Calculation
  ,                                       !- Do Plant Sizing Calculation
  No;                                     !- Run Simulation for Sizing Periods

OS:Sizing:Parameters,
  {aaf1641a-9048-4fed-a6ab-9137aa51ba6d}, !- Handle
  1.25,                                   !- Heating Sizing Factor
  1.15;                                   !- Cooling Sizing Factor

OS:Timestep,
  {e6a5f63c-091a-4060-bcd9-4f1a035b3e6d}, !- Handle
  6;                                      !- Number of Timesteps per Hour

OS:ShadowCalculation,
  {ea2b0160-6b22-4713-94f4-70bcaedc515f}, !- Handle
  20,                                     !- Calculation Frequency
  200;                                    !- Maximum Figures in Shadow Overlap Calculations

OS:HeatBalanceAlgorithm,
  {c8b4fe16-2672-4807-b39f-af2c269e4adb}, !- Handle
  ConductionTransferFunction,             !- Algorithm
  200;                                    !- Surface Temperature Upper Limit {C}

OS:RunPeriod,
  {8d69051f-5d56-4552-9015-30ba646bad1e}, !- Handle
  Run Period 1,                           !- Name
  1,                                      !- Begin Month
  1,                                      !- Begin Day of Month
  12,                                     !- End Month
  31,                                     !- End Day of Month
  ,                                       !- Use Weather File Holidays and Special Days
  ,                                       !- Use Weather File Daylight Saving Period
  ,                                       !- Apply Weekend Holiday Rule
  ,                                       !- Use Weather File Rain Indicators
  ,                                       !- Use Weather File Snow Indicators
  ;                                       !- Number of Times Runperiod to be Repeated

OS:LifeCycleCost:Parameters,
  {a002266a-d5ea-4a5a-a037-69ccca4f08ac}, !- Handle
  ,                                       !- Analysis Type
  ,                                       !- Discounting Convention
  ,                                       !- Inflation Approach
  ,                                       !- Real Discount Rate
  ,                                       !- Nominal Discount Rate
  ,                                       !- Inflation
  ,                                       !- Base Date Month
  ,                                       !- Base Date Year
  ,                                       !- Service Date Month
  ,                                       !- Service Date Year
  ;                                       !- Length of Study Period in Years

OS:SurfaceConvectionAlgorithm:Outside,
  {fffaddff-492d-48fc-be50-a824f2d3f9e9}, !- Handle
  DOE-2;                                  !- Algorithm

OS:SurfaceConvectionAlgorithm:Inside,
  {7eecd1af-fde1-4967-b36e-e9b6048f12a5}, !- Handle
  TARP;                                   !- Algorithm

OS:ZoneCapacitanceMultiplier:ResearchSpecial,
  {c80d5be2-0cb9-4e5a-a4b8-2adfcb255669}, !- Handle
  ,                                       !- Temperature Capacity Multiplier
  15,                                     !- Humidity Capacity Multiplier
  ;                                       !- Carbon Dioxide Capacity Multiplier

OS:ThermalZone,
  {2c2b1a76-5152-4cbd-bb8c-1567fe160327}, !- Handle
  living zone,                            !- Name
  ,                                       !- Multiplier
  ,                                       !- Ceiling Height {m}
  ,                                       !- Volume {m3}
  ,                                       !- Floor Area {m2}
  ,                                       !- Zone Inside Convection Algorithm
  ,                                       !- Zone Outside Convection Algorithm
  ,                                       !- Zone Conditioning Equipment List Name
  {b12ac89b-7ce4-4ce4-baf1-d2fbcf01c9ca}, !- Zone Air Inlet Port List
  {49b1b296-4839-4a65-a22b-b21bfa7ad4f5}, !- Zone Air Exhaust Port List
  {e85defd7-d2cd-4f54-b978-c92531cd0599}, !- Zone Air Node Name
  {b7b796f3-e52f-47aa-a651-5bdbe29526e4}, !- Zone Return Air Port List
  ,                                       !- Primary Daylighting Control Name
  ,                                       !- Fraction of Zone Controlled by Primary Daylighting Control
  ,                                       !- Secondary Daylighting Control Name
  ,                                       !- Fraction of Zone Controlled by Secondary Daylighting Control
  ,                                       !- Illuminance Map Name
  ,                                       !- Group Rendering Name
  {6e67c8a8-9f82-4373-8157-ad7d4bd9b977}, !- Thermostat Name
  No;                                     !- Use Ideal Air Loads

OS:Node,
  {723a4686-5d3a-4940-8d8f-94511b33bfc0}, !- Handle
  Node 1,                                 !- Name
  {e85defd7-d2cd-4f54-b978-c92531cd0599}, !- Inlet Port
  ;                                       !- Outlet Port

OS:Connection,
  {e85defd7-d2cd-4f54-b978-c92531cd0599}, !- Handle
  {c9ea0956-3525-4b58-9248-e7e4504a4e12}, !- Name
  {2c2b1a76-5152-4cbd-bb8c-1567fe160327}, !- Source Object
  11,                                     !- Outlet Port
  {723a4686-5d3a-4940-8d8f-94511b33bfc0}, !- Target Object
  2;                                      !- Inlet Port

OS:PortList,
  {b12ac89b-7ce4-4ce4-baf1-d2fbcf01c9ca}, !- Handle
  {ad9102b8-b708-4d3e-8c05-68865d129ff1}, !- Name
  {2c2b1a76-5152-4cbd-bb8c-1567fe160327}, !- HVAC Component
  {fe709f32-9019-4240-ae23-1a8956b505a2}, !- Port 1
  {388eadb0-0b91-48d1-b7ee-e305a3a80158}; !- Port 2

OS:PortList,
  {49b1b296-4839-4a65-a22b-b21bfa7ad4f5}, !- Handle
  {ee54ba55-f516-4aa6-8526-f2a80291a099}, !- Name
  {2c2b1a76-5152-4cbd-bb8c-1567fe160327}; !- HVAC Component

OS:PortList,
  {b7b796f3-e52f-47aa-a651-5bdbe29526e4}, !- Handle
  {6946ee79-4116-4648-a513-f63cf2121cdd}, !- Name
  {2c2b1a76-5152-4cbd-bb8c-1567fe160327}, !- HVAC Component
  {4b9bfa66-0565-40e4-b6a5-3ad84020fb50}, !- Port 1
  {b4a0d4cf-7481-473a-821c-ab696f7335a3}; !- Port 2

OS:Sizing:Zone,
  {1971739a-13bd-45bc-b783-252b4d76fa29}, !- Handle
  {2c2b1a76-5152-4cbd-bb8c-1567fe160327}, !- Zone or ZoneList Name
  SupplyAirTemperature,                   !- Zone Cooling Design Supply Air Temperature Input Method
  14,                                     !- Zone Cooling Design Supply Air Temperature {C}
  11.11,                                  !- Zone Cooling Design Supply Air Temperature Difference {deltaC}
  SupplyAirTemperature,                   !- Zone Heating Design Supply Air Temperature Input Method
  40,                                     !- Zone Heating Design Supply Air Temperature {C}
  11.11,                                  !- Zone Heating Design Supply Air Temperature Difference {deltaC}
  0.0085,                                 !- Zone Cooling Design Supply Air Humidity Ratio {kg-H2O/kg-air}
  0.008,                                  !- Zone Heating Design Supply Air Humidity Ratio {kg-H2O/kg-air}
  ,                                       !- Zone Heating Sizing Factor
  ,                                       !- Zone Cooling Sizing Factor
  DesignDay,                              !- Cooling Design Air Flow Method
  ,                                       !- Cooling Design Air Flow Rate {m3/s}
  ,                                       !- Cooling Minimum Air Flow per Zone Floor Area {m3/s-m2}
  ,                                       !- Cooling Minimum Air Flow {m3/s}
  ,                                       !- Cooling Minimum Air Flow Fraction
  DesignDay,                              !- Heating Design Air Flow Method
  ,                                       !- Heating Design Air Flow Rate {m3/s}
  ,                                       !- Heating Maximum Air Flow per Zone Floor Area {m3/s-m2}
  ,                                       !- Heating Maximum Air Flow {m3/s}
  ,                                       !- Heating Maximum Air Flow Fraction
  ,                                       !- Design Zone Air Distribution Effectiveness in Cooling Mode
  ,                                       !- Design Zone Air Distribution Effectiveness in Heating Mode
  No,                                     !- Account for Dedicated Outdoor Air System
  NeutralSupplyAir,                       !- Dedicated Outdoor Air System Control Strategy
  autosize,                               !- Dedicated Outdoor Air Low Setpoint Temperature for Design {C}
  autosize;                               !- Dedicated Outdoor Air High Setpoint Temperature for Design {C}

OS:ZoneHVAC:EquipmentList,
  {ab37949f-1121-4a20-8582-7af7243cd375}, !- Handle
  Zone HVAC Equipment List 1,             !- Name
  {2c2b1a76-5152-4cbd-bb8c-1567fe160327}, !- Thermal Zone
  SequentialLoad,                         !- Load Distribution Scheme
  {8fc30010-b480-4ad5-9b14-9e8da591f1d1}, !- Zone Equipment 1
  1,                                      !- Zone Equipment Cooling Sequence 1
  1,                                      !- Zone Equipment Heating or No-Load Sequence 1
  {d37406c6-9e82-440d-a2dc-24c09ae8ccdb}, !- Zone Equipment 2
  2,                                      !- Zone Equipment Cooling Sequence 2
  2;                                      !- Zone Equipment Heating or No-Load Sequence 2

OS:Space,
  {4fda0d23-5a57-4f19-b22d-1603371b729b}, !- Handle
  living space,                           !- Name
  {d978f420-6a41-4f44-998d-a6716242e199}, !- Space Type Name
  ,                                       !- Default Construction Set Name
  ,                                       !- Default Schedule Set Name
  ,                                       !- Direction of Relative North {deg}
  ,                                       !- X Origin {m}
  ,                                       !- Y Origin {m}
  ,                                       !- Z Origin {m}
  ,                                       !- Building Story Name
  {2c2b1a76-5152-4cbd-bb8c-1567fe160327}, !- Thermal Zone Name
  ,                                       !- Part of Total Floor Area
  ,                                       !- Design Specification Outdoor Air Object Name
  {f14dfb2a-6bfe-4755-b017-1185486d07a9}; !- Building Unit Name

OS:Surface,
  {69758755-013a-497a-9f91-a500e013fa32}, !- Handle
  Surface 1,                              !- Name
  Floor,                                  !- Surface Type
  ,                                       !- Construction Name
  {4fda0d23-5a57-4f19-b22d-1603371b729b}, !- Space Name
  Foundation,                             !- Outside Boundary Condition
  ,                                       !- Outside Boundary Condition Object
  NoSun,                                  !- Sun Exposure
  NoWind,                                 !- Wind Exposure
  ,                                       !- View Factor to Ground
  ,                                       !- Number of Vertices
  0, -12.9315688143396, 0,                !- X,Y,Z Vertex 1 {m}
  0, 0, 0,                                !- X,Y,Z Vertex 2 {m}
  6.46578440716979, 0, 0,                 !- X,Y,Z Vertex 3 {m}
  6.46578440716979, -12.9315688143396, 0; !- X,Y,Z Vertex 4 {m}

OS:Surface,
  {2dddce5e-2838-43d8-b7c0-93954fc39107}, !- Handle
  Surface 2,                              !- Name
  Wall,                                   !- Surface Type
  ,                                       !- Construction Name
  {4fda0d23-5a57-4f19-b22d-1603371b729b}, !- Space Name
  Outdoors,                               !- Outside Boundary Condition
  ,                                       !- Outside Boundary Condition Object
  SunExposed,                             !- Sun Exposure
  WindExposed,                            !- Wind Exposure
  ,                                       !- View Factor to Ground
  ,                                       !- Number of Vertices
  0, 0, 2.4384,                           !- X,Y,Z Vertex 1 {m}
  0, 0, 0,                                !- X,Y,Z Vertex 2 {m}
  0, -12.9315688143396, 0,                !- X,Y,Z Vertex 3 {m}
  0, -12.9315688143396, 2.4384;           !- X,Y,Z Vertex 4 {m}

OS:Surface,
  {8004be17-f8bb-4db0-9d82-00b1d0477439}, !- Handle
  Surface 3,                              !- Name
  Wall,                                   !- Surface Type
  ,                                       !- Construction Name
  {4fda0d23-5a57-4f19-b22d-1603371b729b}, !- Space Name
  Outdoors,                               !- Outside Boundary Condition
  ,                                       !- Outside Boundary Condition Object
  SunExposed,                             !- Sun Exposure
  WindExposed,                            !- Wind Exposure
  ,                                       !- View Factor to Ground
  ,                                       !- Number of Vertices
  6.46578440716979, 0, 2.4384,            !- X,Y,Z Vertex 1 {m}
  6.46578440716979, 0, 0,                 !- X,Y,Z Vertex 2 {m}
  0, 0, 0,                                !- X,Y,Z Vertex 3 {m}
  0, 0, 2.4384;                           !- X,Y,Z Vertex 4 {m}

OS:Surface,
  {26c9d309-30bb-4bdc-9b35-86dc3a1fc8db}, !- Handle
  Surface 4,                              !- Name
  Wall,                                   !- Surface Type
  ,                                       !- Construction Name
  {4fda0d23-5a57-4f19-b22d-1603371b729b}, !- Space Name
  Surface,                                !- Outside Boundary Condition
  {8d755acf-fb35-456c-b5f5-3ef542d98392}, !- Outside Boundary Condition Object
  NoSun,                                  !- Sun Exposure
  NoWind,                                 !- Wind Exposure
  ,                                       !- View Factor to Ground
  ,                                       !- Number of Vertices
  6.46578440716979, -12.9315688143396, 2.4384, !- X,Y,Z Vertex 1 {m}
  6.46578440716979, -12.9315688143396, 0, !- X,Y,Z Vertex 2 {m}
  6.46578440716979, 0, 0,                 !- X,Y,Z Vertex 3 {m}
  6.46578440716979, 0, 2.4384;            !- X,Y,Z Vertex 4 {m}

OS:Surface,
  {da05e0dc-4289-419f-87be-b4663781cd36}, !- Handle
  Surface 5,                              !- Name
  Wall,                                   !- Surface Type
  ,                                       !- Construction Name
  {4fda0d23-5a57-4f19-b22d-1603371b729b}, !- Space Name
  Outdoors,                               !- Outside Boundary Condition
  ,                                       !- Outside Boundary Condition Object
  SunExposed,                             !- Sun Exposure
  WindExposed,                            !- Wind Exposure
  ,                                       !- View Factor to Ground
  ,                                       !- Number of Vertices
  0, -12.9315688143396, 2.4384,           !- X,Y,Z Vertex 1 {m}
  0, -12.9315688143396, 0,                !- X,Y,Z Vertex 2 {m}
  6.46578440716979, -12.9315688143396, 0, !- X,Y,Z Vertex 3 {m}
  6.46578440716979, -12.9315688143396, 2.4384; !- X,Y,Z Vertex 4 {m}

OS:Surface,
  {da82d55b-e47b-40d9-afad-314cca0a9b17}, !- Handle
  Surface 6,                              !- Name
  RoofCeiling,                            !- Surface Type
  ,                                       !- Construction Name
  {4fda0d23-5a57-4f19-b22d-1603371b729b}, !- Space Name
  Surface,                                !- Outside Boundary Condition
  {7cc9c6d1-0693-4119-879a-05c114a4fc49}, !- Outside Boundary Condition Object
  NoSun,                                  !- Sun Exposure
  NoWind,                                 !- Wind Exposure
  ,                                       !- View Factor to Ground
  ,                                       !- Number of Vertices
  6.46578440716979, -12.9315688143396, 2.4384, !- X,Y,Z Vertex 1 {m}
  6.46578440716979, 0, 2.4384,            !- X,Y,Z Vertex 2 {m}
  0, 0, 2.4384,                           !- X,Y,Z Vertex 3 {m}
  0, -12.9315688143396, 2.4384;           !- X,Y,Z Vertex 4 {m}

OS:SpaceType,
  {d978f420-6a41-4f44-998d-a6716242e199}, !- Handle
  Space Type 1,                           !- Name
  ,                                       !- Default Construction Set Name
  ,                                       !- Default Schedule Set Name
  ,                                       !- Group Rendering Name
  ,                                       !- Design Specification Outdoor Air Object Name
  ,                                       !- Standards Template
  ,                                       !- Standards Building Type
  living;                                 !- Standards Space Type

OS:ThermalZone,
  {4cb310e5-1c00-4d2f-85ed-88c0ec7ff1d3}, !- Handle
  living zone|unit 2,                     !- Name
  ,                                       !- Multiplier
  ,                                       !- Ceiling Height {m}
  ,                                       !- Volume {m3}
  ,                                       !- Floor Area {m2}
  ,                                       !- Zone Inside Convection Algorithm
  ,                                       !- Zone Outside Convection Algorithm
  ,                                       !- Zone Conditioning Equipment List Name
  {7b909a6d-e8cb-44ce-89c7-368d497d1e37}, !- Zone Air Inlet Port List
  {20bebf83-ff4c-424e-92ff-abfb6dcd9a7c}, !- Zone Air Exhaust Port List
  {6c8c4a58-2a01-4ab8-9cca-90f52febfa13}, !- Zone Air Node Name
  {bd7329a5-3f09-4c63-83e9-c2f4a05687a5}, !- Zone Return Air Port List
  ,                                       !- Primary Daylighting Control Name
  ,                                       !- Fraction of Zone Controlled by Primary Daylighting Control
  ,                                       !- Secondary Daylighting Control Name
  ,                                       !- Fraction of Zone Controlled by Secondary Daylighting Control
  ,                                       !- Illuminance Map Name
  ,                                       !- Group Rendering Name
  {7c83e8bb-a4d4-4717-b095-cd5b309f9c8b}, !- Thermostat Name
  No;                                     !- Use Ideal Air Loads

OS:Node,
  {e9da8c99-ad0d-4184-a20d-f238dbc06915}, !- Handle
  Node 2,                                 !- Name
  {6c8c4a58-2a01-4ab8-9cca-90f52febfa13}, !- Inlet Port
  ;                                       !- Outlet Port

OS:Connection,
  {6c8c4a58-2a01-4ab8-9cca-90f52febfa13}, !- Handle
  {14b51b1f-aa86-475d-9409-99840785b8a9}, !- Name
  {4cb310e5-1c00-4d2f-85ed-88c0ec7ff1d3}, !- Source Object
  11,                                     !- Outlet Port
  {e9da8c99-ad0d-4184-a20d-f238dbc06915}, !- Target Object
  2;                                      !- Inlet Port

OS:PortList,
  {7b909a6d-e8cb-44ce-89c7-368d497d1e37}, !- Handle
  {f7999840-e83f-4cf8-a61a-ef6162f41ebf}, !- Name
  {4cb310e5-1c00-4d2f-85ed-88c0ec7ff1d3}, !- HVAC Component
  {92c4d4af-892a-4867-92f2-633b9773633b}, !- Port 1
  {f1b0e60b-5eb3-4d4c-9eeb-36cf9ef2bfd8}; !- Port 2

OS:PortList,
  {20bebf83-ff4c-424e-92ff-abfb6dcd9a7c}, !- Handle
  {1f63925b-fd91-4c54-92c0-ebca79fdcd0c}, !- Name
  {4cb310e5-1c00-4d2f-85ed-88c0ec7ff1d3}; !- HVAC Component

OS:PortList,
  {bd7329a5-3f09-4c63-83e9-c2f4a05687a5}, !- Handle
  {89998582-df03-4681-b664-a40646050568}, !- Name
  {4cb310e5-1c00-4d2f-85ed-88c0ec7ff1d3}, !- HVAC Component
  {048a09d9-df55-49dd-818a-8bef0417f96d}, !- Port 1
  {879baa3c-944b-4cd6-8cef-aa018fc7ca6c}; !- Port 2

OS:Sizing:Zone,
  {3731dedf-1fce-4c39-9847-e5f78ca01ca7}, !- Handle
  {4cb310e5-1c00-4d2f-85ed-88c0ec7ff1d3}, !- Zone or ZoneList Name
  SupplyAirTemperature,                   !- Zone Cooling Design Supply Air Temperature Input Method
  14,                                     !- Zone Cooling Design Supply Air Temperature {C}
  11.11,                                  !- Zone Cooling Design Supply Air Temperature Difference {deltaC}
  SupplyAirTemperature,                   !- Zone Heating Design Supply Air Temperature Input Method
  40,                                     !- Zone Heating Design Supply Air Temperature {C}
  11.11,                                  !- Zone Heating Design Supply Air Temperature Difference {deltaC}
  0.0085,                                 !- Zone Cooling Design Supply Air Humidity Ratio {kg-H2O/kg-air}
  0.008,                                  !- Zone Heating Design Supply Air Humidity Ratio {kg-H2O/kg-air}
  ,                                       !- Zone Heating Sizing Factor
  ,                                       !- Zone Cooling Sizing Factor
  DesignDay,                              !- Cooling Design Air Flow Method
  ,                                       !- Cooling Design Air Flow Rate {m3/s}
  ,                                       !- Cooling Minimum Air Flow per Zone Floor Area {m3/s-m2}
  ,                                       !- Cooling Minimum Air Flow {m3/s}
  ,                                       !- Cooling Minimum Air Flow Fraction
  DesignDay,                              !- Heating Design Air Flow Method
  ,                                       !- Heating Design Air Flow Rate {m3/s}
  ,                                       !- Heating Maximum Air Flow per Zone Floor Area {m3/s-m2}
  ,                                       !- Heating Maximum Air Flow {m3/s}
  ,                                       !- Heating Maximum Air Flow Fraction
  ,                                       !- Design Zone Air Distribution Effectiveness in Cooling Mode
  ,                                       !- Design Zone Air Distribution Effectiveness in Heating Mode
  No,                                     !- Account for Dedicated Outdoor Air System
  NeutralSupplyAir,                       !- Dedicated Outdoor Air System Control Strategy
  autosize,                               !- Dedicated Outdoor Air Low Setpoint Temperature for Design {C}
  autosize;                               !- Dedicated Outdoor Air High Setpoint Temperature for Design {C}

OS:ZoneHVAC:EquipmentList,
  {eafc2658-e5fa-45a5-bd05-9a32142c1db7}, !- Handle
  Zone HVAC Equipment List 2,             !- Name
  {4cb310e5-1c00-4d2f-85ed-88c0ec7ff1d3}, !- Thermal Zone
  SequentialLoad,                         !- Load Distribution Scheme
  {fd80f39d-8a6b-4418-9e47-433979776f8a}, !- Zone Equipment 1
  1,                                      !- Zone Equipment Cooling Sequence 1
  1,                                      !- Zone Equipment Heating or No-Load Sequence 1
  {354ab91f-a684-4085-8359-9e4251677c5d}, !- Zone Equipment 2
  2,                                      !- Zone Equipment Cooling Sequence 2
  2;                                      !- Zone Equipment Heating or No-Load Sequence 2

OS:Space,
  {ff622e0b-3b08-4f18-b75f-63f1dc98bb2b}, !- Handle
  living space|unit 2|story 1,            !- Name
  {d978f420-6a41-4f44-998d-a6716242e199}, !- Space Type Name
  ,                                       !- Default Construction Set Name
  ,                                       !- Default Schedule Set Name
  -0,                                     !- Direction of Relative North {deg}
  0,                                      !- X Origin {m}
  0,                                      !- Y Origin {m}
  0,                                      !- Z Origin {m}
  ,                                       !- Building Story Name
  {4cb310e5-1c00-4d2f-85ed-88c0ec7ff1d3}, !- Thermal Zone Name
  ,                                       !- Part of Total Floor Area
  ,                                       !- Design Specification Outdoor Air Object Name
  {044ab90f-c927-4b90-b34a-bdcc699eda0c}; !- Building Unit Name

OS:Surface,
  {aa3c6db7-b008-4643-8655-52cc5c960241}, !- Handle
  Surface 12,                             !- Name
  Wall,                                   !- Surface Type
  ,                                       !- Construction Name
  {ff622e0b-3b08-4f18-b75f-63f1dc98bb2b}, !- Space Name
  Outdoors,                               !- Outside Boundary Condition
  ,                                       !- Outside Boundary Condition Object
  SunExposed,                             !- Sun Exposure
  WindExposed,                            !- Wind Exposure
  ,                                       !- View Factor to Ground
  ,                                       !- Number of Vertices
  12.9315688143396, 0, 2.4384,            !- X,Y,Z Vertex 1 {m}
  12.9315688143396, 0, 0,                 !- X,Y,Z Vertex 2 {m}
  6.46578440716979, 0, 0,                 !- X,Y,Z Vertex 3 {m}
  6.46578440716979, 0, 2.4384;            !- X,Y,Z Vertex 4 {m}

OS:Surface,
  {8d755acf-fb35-456c-b5f5-3ef542d98392}, !- Handle
  Surface 13,                             !- Name
  Wall,                                   !- Surface Type
  ,                                       !- Construction Name
  {ff622e0b-3b08-4f18-b75f-63f1dc98bb2b}, !- Space Name
  Surface,                                !- Outside Boundary Condition
  {26c9d309-30bb-4bdc-9b35-86dc3a1fc8db}, !- Outside Boundary Condition Object
  NoSun,                                  !- Sun Exposure
  NoWind,                                 !- Wind Exposure
  ,                                       !- View Factor to Ground
  ,                                       !- Number of Vertices
  6.46578440716979, 0, 2.4384,            !- X,Y,Z Vertex 1 {m}
  6.46578440716979, 0, 0,                 !- X,Y,Z Vertex 2 {m}
  6.46578440716979, -12.9315688143396, 0, !- X,Y,Z Vertex 3 {m}
  6.46578440716979, -12.9315688143396, 2.4384; !- X,Y,Z Vertex 4 {m}

OS:Surface,
  {6a94f3ed-8cfc-43c5-9d27-ac5e1520c50d}, !- Handle
  Surface 14,                             !- Name
  Wall,                                   !- Surface Type
  ,                                       !- Construction Name
  {ff622e0b-3b08-4f18-b75f-63f1dc98bb2b}, !- Space Name
  Surface,                                !- Outside Boundary Condition
  {3243b382-6fb7-47ea-bb3c-ce6455af1948}, !- Outside Boundary Condition Object
  NoSun,                                  !- Sun Exposure
  NoWind,                                 !- Wind Exposure
  ,                                       !- View Factor to Ground
  ,                                       !- Number of Vertices
  12.9315688143396, -12.9315688143396, 2.4384, !- X,Y,Z Vertex 1 {m}
  12.9315688143396, -12.9315688143396, 0, !- X,Y,Z Vertex 2 {m}
  12.9315688143396, 0, 0,                 !- X,Y,Z Vertex 3 {m}
  12.9315688143396, 0, 2.4384;            !- X,Y,Z Vertex 4 {m}

OS:Surface,
  {f0e6818f-526b-433e-9a7f-4d68ab247f11}, !- Handle
  Surface 15,                             !- Name
  RoofCeiling,                            !- Surface Type
  ,                                       !- Construction Name
  {ff622e0b-3b08-4f18-b75f-63f1dc98bb2b}, !- Space Name
  Surface,                                !- Outside Boundary Condition
  {1944d690-176f-486a-9987-dae1da4fe0a7}, !- Outside Boundary Condition Object
  NoSun,                                  !- Sun Exposure
  NoWind,                                 !- Wind Exposure
  ,                                       !- View Factor to Ground
  ,                                       !- Number of Vertices
  12.9315688143396, -12.9315688143396, 2.4384, !- X,Y,Z Vertex 1 {m}
  12.9315688143396, 0, 2.4384,            !- X,Y,Z Vertex 2 {m}
  6.46578440716979, 0, 2.4384,            !- X,Y,Z Vertex 3 {m}
  6.46578440716979, -12.9315688143396, 2.4384; !- X,Y,Z Vertex 4 {m}

OS:Surface,
  {8d77ed9b-bdca-4d4d-9057-bffc56013c0c}, !- Handle
  Surface 16,                             !- Name
  Floor,                                  !- Surface Type
  ,                                       !- Construction Name
  {ff622e0b-3b08-4f18-b75f-63f1dc98bb2b}, !- Space Name
  Foundation,                             !- Outside Boundary Condition
  ,                                       !- Outside Boundary Condition Object
  NoSun,                                  !- Sun Exposure
  NoWind,                                 !- Wind Exposure
  ,                                       !- View Factor to Ground
  ,                                       !- Number of Vertices
  6.46578440716979, -12.9315688143396, 0, !- X,Y,Z Vertex 1 {m}
  6.46578440716979, 0, 0,                 !- X,Y,Z Vertex 2 {m}
  12.9315688143396, 0, 0,                 !- X,Y,Z Vertex 3 {m}