!- NOTE: Auto-generated from /test/osw_files/SFA_10units_2story_CS_UA_3Beds_2Baths_Denver.osw

OS:Version,
  {30398527-89cc-4831-a76b-af47e8b41cb7}, !- Handle
  3.0.0-pre1;                             !- Version Identifier

OS:SimulationControl,
  {4c0c720f-e32f-4419-84ac-2e38b6cd8453}, !- Handle
  ,                                       !- Do Zone Sizing Calculation
  ,                                       !- Do System Sizing Calculation
  ,                                       !- Do Plant Sizing Calculation
  No;                                     !- Run Simulation for Sizing Periods

OS:Timestep,
  {c6c648b1-4ce8-41e5-be75-8e4e0e8c1599}, !- Handle
  6;                                      !- Number of Timesteps per Hour

OS:ShadowCalculation,
  {09cc1394-5f78-4268-9f71-3562c1ab7757}, !- Handle
  20,                                     !- Calculation Frequency
  200;                                    !- Maximum Figures in Shadow Overlap Calculations

OS:SurfaceConvectionAlgorithm:Outside,
  {be99b983-45b0-4d53-a76b-37c97809bfe9}, !- Handle
  DOE-2;                                  !- Algorithm

OS:SurfaceConvectionAlgorithm:Inside,
  {cf47bba4-8ad3-404e-8dbf-d9593f808881}, !- Handle
  TARP;                                   !- Algorithm

OS:ZoneCapacitanceMultiplier:ResearchSpecial,
  {b19a2a85-4cad-4e7d-a6c4-92392d9e2c45}, !- Handle
  ,                                       !- Temperature Capacity Multiplier
  15,                                     !- Humidity Capacity Multiplier
  ;                                       !- Carbon Dioxide Capacity Multiplier

OS:RunPeriod,
  {185580f6-d199-464f-8876-3ca0a1d45840}, !- Handle
  Run Period 1,                           !- Name
  1,                                      !- Begin Month
  1,                                      !- Begin Day of Month
  12,                                     !- End Month
  31,                                     !- End Day of Month
  ,                                       !- Use Weather File Holidays and Special Days
  ,                                       !- Use Weather File Daylight Saving Period
  ,                                       !- Apply Weekend Holiday Rule
  ,                                       !- Use Weather File Rain Indicators
  ,                                       !- Use Weather File Snow Indicators
  ;                                       !- Number of Times Runperiod to be Repeated

OS:YearDescription,
  {e67903c1-2e59-4066-b540-3a1e618f2f1e}, !- Handle
  2007,                                   !- Calendar Year
  ,                                       !- Day of Week for Start Day
  ;                                       !- Is Leap Year

OS:ThermalZone,
  {2fdf422d-c8fa-41fa-9957-d6945ba4e60b}, !- Handle
  living zone,                            !- Name
  ,                                       !- Multiplier
  ,                                       !- Ceiling Height {m}
  ,                                       !- Volume {m3}
  ,                                       !- Floor Area {m2}
  ,                                       !- Zone Inside Convection Algorithm
  ,                                       !- Zone Outside Convection Algorithm
  ,                                       !- Zone Conditioning Equipment List Name
  {f3951fbb-4084-45e5-aaa0-20c1fd2e063b}, !- Zone Air Inlet Port List
  {a1ab09f4-555c-45c6-bf59-7f480103665e}, !- Zone Air Exhaust Port List
  {aa2fe5d5-3cb8-45d0-86f8-c4a835203257}, !- Zone Air Node Name
  {95a496ff-da20-4d79-9814-1e3be51dbb90}, !- Zone Return Air Port List
  ,                                       !- Primary Daylighting Control Name
  ,                                       !- Fraction of Zone Controlled by Primary Daylighting Control
  ,                                       !- Secondary Daylighting Control Name
  ,                                       !- Fraction of Zone Controlled by Secondary Daylighting Control
  ,                                       !- Illuminance Map Name
  ,                                       !- Group Rendering Name
  ,                                       !- Thermostat Name
  No;                                     !- Use Ideal Air Loads

OS:Node,
  {10d563fa-4fbd-4e95-85ee-54b981f574a6}, !- Handle
  Node 1,                                 !- Name
  {aa2fe5d5-3cb8-45d0-86f8-c4a835203257}, !- Inlet Port
  ;                                       !- Outlet Port

OS:Connection,
  {aa2fe5d5-3cb8-45d0-86f8-c4a835203257}, !- Handle
  {cc7b6cfc-84a2-41a5-9b67-db6a82e5b574}, !- Name
  {2fdf422d-c8fa-41fa-9957-d6945ba4e60b}, !- Source Object
  11,                                     !- Outlet Port
  {10d563fa-4fbd-4e95-85ee-54b981f574a6}, !- Target Object
  2;                                      !- Inlet Port

OS:PortList,
  {f3951fbb-4084-45e5-aaa0-20c1fd2e063b}, !- Handle
  {00d692a3-53cd-4d64-8598-17abc54e0912}, !- Name
  {2fdf422d-c8fa-41fa-9957-d6945ba4e60b}; !- HVAC Component

OS:PortList,
  {a1ab09f4-555c-45c6-bf59-7f480103665e}, !- Handle
  {69b30c8e-954b-4f96-9462-6079ea9e97fe}, !- Name
  {2fdf422d-c8fa-41fa-9957-d6945ba4e60b}; !- HVAC Component

OS:PortList,
  {95a496ff-da20-4d79-9814-1e3be51dbb90}, !- Handle
  {cc2800a8-a4d1-4c39-ac30-8951ee684aa9}, !- Name
  {2fdf422d-c8fa-41fa-9957-d6945ba4e60b}; !- HVAC Component

OS:Sizing:Zone,
  {795872cd-f43a-4676-8c7d-5788149338c6}, !- Handle
  {2fdf422d-c8fa-41fa-9957-d6945ba4e60b}, !- Zone or ZoneList Name
  SupplyAirTemperature,                   !- Zone Cooling Design Supply Air Temperature Input Method
  14,                                     !- Zone Cooling Design Supply Air Temperature {C}
  11.11,                                  !- Zone Cooling Design Supply Air Temperature Difference {deltaC}
  SupplyAirTemperature,                   !- Zone Heating Design Supply Air Temperature Input Method
  40,                                     !- Zone Heating Design Supply Air Temperature {C}
  11.11,                                  !- Zone Heating Design Supply Air Temperature Difference {deltaC}
  0.0085,                                 !- Zone Cooling Design Supply Air Humidity Ratio {kg-H2O/kg-air}
  0.008,                                  !- Zone Heating Design Supply Air Humidity Ratio {kg-H2O/kg-air}
  ,                                       !- Zone Heating Sizing Factor
  ,                                       !- Zone Cooling Sizing Factor
  DesignDay,                              !- Cooling Design Air Flow Method
  ,                                       !- Cooling Design Air Flow Rate {m3/s}
  ,                                       !- Cooling Minimum Air Flow per Zone Floor Area {m3/s-m2}
  ,                                       !- Cooling Minimum Air Flow {m3/s}
  ,                                       !- Cooling Minimum Air Flow Fraction
  DesignDay,                              !- Heating Design Air Flow Method
  ,                                       !- Heating Design Air Flow Rate {m3/s}
  ,                                       !- Heating Maximum Air Flow per Zone Floor Area {m3/s-m2}
  ,                                       !- Heating Maximum Air Flow {m3/s}
  ,                                       !- Heating Maximum Air Flow Fraction
  ,                                       !- Design Zone Air Distribution Effectiveness in Cooling Mode
  ,                                       !- Design Zone Air Distribution Effectiveness in Heating Mode
  No,                                     !- Account for Dedicated Outdoor Air System
  NeutralSupplyAir,                       !- Dedicated Outdoor Air System Control Strategy
  autosize,                               !- Dedicated Outdoor Air Low Setpoint Temperature for Design {C}
  autosize;                               !- Dedicated Outdoor Air High Setpoint Temperature for Design {C}

OS:ZoneHVAC:EquipmentList,
  {8507da2d-3611-41e7-8009-13105f1ef0ac}, !- Handle
  Zone HVAC Equipment List 1,             !- Name
  {2fdf422d-c8fa-41fa-9957-d6945ba4e60b}; !- Thermal Zone

OS:Space,
  {dac06b57-e81b-4eca-81f4-f0f2bc3e97c3}, !- Handle
  living space,                           !- Name
  {795b1b79-07e1-4b2e-8b8e-14d7a5f51029}, !- Space Type Name
  ,                                       !- Default Construction Set Name
  ,                                       !- Default Schedule Set Name
  ,                                       !- Direction of Relative North {deg}
  ,                                       !- X Origin {m}
  ,                                       !- Y Origin {m}
  ,                                       !- Z Origin {m}
  ,                                       !- Building Story Name
  {2fdf422d-c8fa-41fa-9957-d6945ba4e60b}, !- Thermal Zone Name
  ,                                       !- Part of Total Floor Area
  ,                                       !- Design Specification Outdoor Air Object Name
  {dd2e7fc0-9fcb-40c3-8fc8-6111e4eb8c94}; !- Building Unit Name

OS:Surface,
  {9a3a0a7c-b83e-4f98-a253-0fe6ea47206b}, !- Handle
  Surface 1,                              !- Name
  Floor,                                  !- Surface Type
  ,                                       !- Construction Name
  {dac06b57-e81b-4eca-81f4-f0f2bc3e97c3}, !- Space Name
  Surface,                                !- Outside Boundary Condition
  {e7dbd9c0-6a10-41a5-a0fe-81f04c22cc14}, !- Outside Boundary Condition Object
  NoSun,                                  !- Sun Exposure
  NoWind,                                 !- Wind Exposure
  ,                                       !- View Factor to Ground
  ,                                       !- Number of Vertices
  0, -9.144, 0,                           !- X,Y,Z Vertex 1 {m}
  0, 0, 0,                                !- X,Y,Z Vertex 2 {m}
  4.572, 0, 0,                            !- X,Y,Z Vertex 3 {m}
  4.572, -9.144, 0;                       !- X,Y,Z Vertex 4 {m}

OS:Surface,
  {d7b70628-2c80-42d7-8423-667920bd8939}, !- Handle
  Surface 2,                              !- Name
  Wall,                                   !- Surface Type
  ,                                       !- Construction Name
  {dac06b57-e81b-4eca-81f4-f0f2bc3e97c3}, !- Space Name
  Outdoors,                               !- Outside Boundary Condition
  ,                                       !- Outside Boundary Condition Object
  SunExposed,                             !- Sun Exposure
  WindExposed,                            !- Wind Exposure
  ,                                       !- View Factor to Ground
  ,                                       !- Number of Vertices
  0, 0, 2.4384,                           !- X,Y,Z Vertex 1 {m}
  0, 0, 0,                                !- X,Y,Z Vertex 2 {m}
  0, -9.144, 0,                           !- X,Y,Z Vertex 3 {m}
  0, -9.144, 2.4384;                      !- X,Y,Z Vertex 4 {m}

OS:Surface,
  {38d0b631-5f7b-437d-83dc-7632c44c2b4a}, !- Handle
  Surface 3,                              !- Name
  Wall,                                   !- Surface Type
  ,                                       !- Construction Name
  {dac06b57-e81b-4eca-81f4-f0f2bc3e97c3}, !- Space Name
  Outdoors,                               !- Outside Boundary Condition
  ,                                       !- Outside Boundary Condition Object
  SunExposed,                             !- Sun Exposure
  WindExposed,                            !- Wind Exposure
  ,                                       !- View Factor to Ground
  ,                                       !- Number of Vertices
  4.572, 0, 2.4384,                       !- X,Y,Z Vertex 1 {m}
  4.572, 0, 0,                            !- X,Y,Z Vertex 2 {m}
  0, 0, 0,                                !- X,Y,Z Vertex 3 {m}
  0, 0, 2.4384;                           !- X,Y,Z Vertex 4 {m}

OS:Surface,
  {bfbe02c9-dc37-49b5-824e-94d3651f821e}, !- Handle
  Surface 4,                              !- Name
  Wall,                                   !- Surface Type
  ,                                       !- Construction Name
  {dac06b57-e81b-4eca-81f4-f0f2bc3e97c3}, !- Space Name
  Surface,                                !- Outside Boundary Condition
  {5b1f0dee-22b8-4b03-9611-a8f3135f764b}, !- Outside Boundary Condition Object
  NoSun,                                  !- Sun Exposure
  NoWind,                                 !- Wind Exposure
  ,                                       !- View Factor to Ground
  ,                                       !- Number of Vertices
  4.572, -9.144, 2.4384,                  !- X,Y,Z Vertex 1 {m}
  4.572, -9.144, 0,                       !- X,Y,Z Vertex 2 {m}
  4.572, 0, 0,                            !- X,Y,Z Vertex 3 {m}
  4.572, 0, 2.4384;                       !- X,Y,Z Vertex 4 {m}

OS:Surface,
  {e8db1b35-4400-41cb-838b-b92785d5a156}, !- Handle
  Surface 5,                              !- Name
  Wall,                                   !- Surface Type
  ,                                       !- Construction Name
  {dac06b57-e81b-4eca-81f4-f0f2bc3e97c3}, !- Space Name
  Outdoors,                               !- Outside Boundary Condition
  ,                                       !- Outside Boundary Condition Object
  SunExposed,                             !- Sun Exposure
  WindExposed,                            !- Wind Exposure
  ,                                       !- View Factor to Ground
  ,                                       !- Number of Vertices
  0, -9.144, 2.4384,                      !- X,Y,Z Vertex 1 {m}
  0, -9.144, 0,                           !- X,Y,Z Vertex 2 {m}
  4.572, -9.144, 0,                       !- X,Y,Z Vertex 3 {m}
  4.572, -9.144, 2.4384;                  !- X,Y,Z Vertex 4 {m}

OS:Surface,
  {1c5c69c6-36f0-42e2-b2e8-d18c1b95d848}, !- Handle
  Surface 6,                              !- Name
  RoofCeiling,                            !- Surface Type
  ,                                       !- Construction Name
  {dac06b57-e81b-4eca-81f4-f0f2bc3e97c3}, !- Space Name
  Surface,                                !- Outside Boundary Condition
  {79c2de95-e2c5-4b27-a657-6bfeeb3f9570}, !- Outside Boundary Condition Object
  NoSun,                                  !- Sun Exposure
  NoWind,                                 !- Wind Exposure
  ,                                       !- View Factor to Ground
  ,                                       !- Number of Vertices
  4.572, -9.144, 2.4384,                  !- X,Y,Z Vertex 1 {m}
  4.572, 0, 2.4384,                       !- X,Y,Z Vertex 2 {m}
  0, 0, 2.4384,                           !- X,Y,Z Vertex 3 {m}
  0, -9.144, 2.4384;                      !- X,Y,Z Vertex 4 {m}

OS:SpaceType,
  {795b1b79-07e1-4b2e-8b8e-14d7a5f51029}, !- Handle
  Space Type 1,                           !- Name
  ,                                       !- Default Construction Set Name
  ,                                       !- Default Schedule Set Name
  ,                                       !- Group Rendering Name
  ,                                       !- Design Specification Outdoor Air Object Name
  ,                                       !- Standards Template
  ,                                       !- Standards Building Type
  living;                                 !- Standards Space Type

OS:Space,
  {404818e8-d658-4b10-955b-35a55c30727a}, !- Handle
  living space|story 2,                   !- Name
  {795b1b79-07e1-4b2e-8b8e-14d7a5f51029}, !- Space Type Name
  ,                                       !- Default Construction Set Name
  ,                                       !- Default Schedule Set Name
  -0,                                     !- Direction of Relative North {deg}
  0,                                      !- X Origin {m}
  0,                                      !- Y Origin {m}
  2.4384,                                 !- Z Origin {m}
  ,                                       !- Building Story Name
  {2fdf422d-c8fa-41fa-9957-d6945ba4e60b}, !- Thermal Zone Name
  ,                                       !- Part of Total Floor Area
  ,                                       !- Design Specification Outdoor Air Object Name
  {dd2e7fc0-9fcb-40c3-8fc8-6111e4eb8c94}; !- Building Unit Name

OS:Surface,
  {b8a58702-7a01-4692-8e96-fbd02de197c4}, !- Handle
  Surface 7,                              !- Name
  Wall,                                   !- Surface Type
  ,                                       !- Construction Name
  {404818e8-d658-4b10-955b-35a55c30727a}, !- Space Name
  Outdoors,                               !- Outside Boundary Condition
  ,                                       !- Outside Boundary Condition Object
  SunExposed,                             !- Sun Exposure
  WindExposed,                            !- Wind Exposure
  ,                                       !- View Factor to Ground
  ,                                       !- Number of Vertices
  4.572, 0, 2.4384,                       !- X,Y,Z Vertex 1 {m}
  4.572, 0, 0,                            !- X,Y,Z Vertex 2 {m}
  0, 0, 0,                                !- X,Y,Z Vertex 3 {m}
  0, 0, 2.4384;                           !- X,Y,Z Vertex 4 {m}

OS:Surface,
  {8bb621e5-daf3-4aff-9e49-055ace99de31}, !- Handle
  Surface 8,                              !- Name
  Wall,                                   !- Surface Type
  ,                                       !- Construction Name
  {404818e8-d658-4b10-955b-35a55c30727a}, !- Space Name
  Surface,                                !- Outside Boundary Condition
  {3df83a05-9694-4455-8c20-7212d2f011ed}, !- Outside Boundary Condition Object
  NoSun,                                  !- Sun Exposure
  NoWind,                                 !- Wind Exposure
  ,                                       !- View Factor to Ground
  ,                                       !- Number of Vertices
  4.572, -9.144, 2.4384,                  !- X,Y,Z Vertex 1 {m}
  4.572, -9.144, 0,                       !- X,Y,Z Vertex 2 {m}
  4.572, 0, 0,                            !- X,Y,Z Vertex 3 {m}
  4.572, 0, 2.4384;                       !- X,Y,Z Vertex 4 {m}

OS:Surface,
  {79c2de95-e2c5-4b27-a657-6bfeeb3f9570}, !- Handle
  Surface 9,                              !- Name
  Floor,                                  !- Surface Type
  ,                                       !- Construction Name
  {404818e8-d658-4b10-955b-35a55c30727a}, !- Space Name
  Surface,                                !- Outside Boundary Condition
  {1c5c69c6-36f0-42e2-b2e8-d18c1b95d848}, !- Outside Boundary Condition Object
  NoSun,                                  !- Sun Exposure
  NoWind,                                 !- Wind Exposure
  ,                                       !- View Factor to Ground
  ,                                       !- Number of Vertices
  0, -9.144, 0,                           !- X,Y,Z Vertex 1 {m}
  0, 0, 0,                                !- X,Y,Z Vertex 2 {m}
  4.572, 0, 0,                            !- X,Y,Z Vertex 3 {m}
  4.572, -9.144, 0;                       !- X,Y,Z Vertex 4 {m}

OS:Surface,
  {4bdd8e66-40ac-4a18-ad8d-01fb853c4781}, !- Handle
  Surface 10,                             !- Name
  Wall,                                   !- Surface Type
  ,                                       !- Construction Name
  {404818e8-d658-4b10-955b-35a55c30727a}, !- Space Name
  Outdoors,                               !- Outside Boundary Condition
  ,                                       !- Outside Boundary Condition Object
  SunExposed,                             !- Sun Exposure
  WindExposed,                            !- Wind Exposure
  ,                                       !- View Factor to Ground
  ,                                       !- Number of Vertices
  0, 0, 2.4384,                           !- X,Y,Z Vertex 1 {m}
  0, 0, 0,                                !- X,Y,Z Vertex 2 {m}
  0, -9.144, 0,                           !- X,Y,Z Vertex 3 {m}
  0, -9.144, 2.4384;                      !- X,Y,Z Vertex 4 {m}

OS:Surface,
  {947377b9-46b3-455e-92c5-8ae8f9a7eb08}, !- Handle
  Surface 11,                             !- Name
  Wall,                                   !- Surface Type
  ,                                       !- Construction Name
  {404818e8-d658-4b10-955b-35a55c30727a}, !- Space Name
  Outdoors,                               !- Outside Boundary Condition
  ,                                       !- Outside Boundary Condition Object
  SunExposed,                             !- Sun Exposure
  WindExposed,                            !- Wind Exposure
  ,                                       !- View Factor to Ground
  ,                                       !- Number of Vertices
  0, -9.144, 2.4384,                      !- X,Y,Z Vertex 1 {m}
  0, -9.144, 0,                           !- X,Y,Z Vertex 2 {m}
  4.572, -9.144, 0,                       !- X,Y,Z Vertex 3 {m}
  4.572, -9.144, 2.4384;                  !- X,Y,Z Vertex 4 {m}

OS:Surface,
  {7c3651bf-eb59-4df8-8c37-2e9536508c46}, !- Handle
  Surface 12,                             !- Name
  RoofCeiling,                            !- Surface Type
  ,                                       !- Construction Name
  {404818e8-d658-4b10-955b-35a55c30727a}, !- Space Name
  Surface,                                !- Outside Boundary Condition
  {ff2913f4-f4e0-46ba-b055-73456e9af982}, !- Outside Boundary Condition Object
  NoSun,                                  !- Sun Exposure
  NoWind,                                 !- Wind Exposure
  ,                                       !- View Factor to Ground
  ,                                       !- Number of Vertices
  4.572, -9.144, 2.4384,                  !- X,Y,Z Vertex 1 {m}
  4.572, 0, 2.4384,                       !- X,Y,Z Vertex 2 {m}
  0, 0, 2.4384,                           !- X,Y,Z Vertex 3 {m}
  0, -9.144, 2.4384;                      !- X,Y,Z Vertex 4 {m}

OS:ThermalZone,
  {a5321887-14fb-49e6-b1a9-08c97ca06a5c}, !- Handle
  living zone|unit 2,                     !- Name
  ,                                       !- Multiplier
  ,                                       !- Ceiling Height {m}
  ,                                       !- Volume {m3}
  ,                                       !- Floor Area {m2}
  ,                                       !- Zone Inside Convection Algorithm
  ,                                       !- Zone Outside Convection Algorithm
  ,                                       !- Zone Conditioning Equipment List Name
  {d83db4ad-a5a5-475c-b0c9-58f0a7183132}, !- Zone Air Inlet Port List
  {a50968af-9e98-4223-b1ec-aaff1f5ed62d}, !- Zone Air Exhaust Port List
  {bcd7a1a6-c0ae-41c8-8026-fc1bbe4f0cd3}, !- Zone Air Node Name
  {09c2c529-db36-46a2-a3af-e3e61666d77a}, !- Zone Return Air Port List
  ,                                       !- Primary Daylighting Control Name
  ,                                       !- Fraction of Zone Controlled by Primary Daylighting Control
  ,                                       !- Secondary Daylighting Control Name
  ,                                       !- Fraction of Zone Controlled by Secondary Daylighting Control
  ,                                       !- Illuminance Map Name
  ,                                       !- Group Rendering Name
  ,                                       !- Thermostat Name
  No;                                     !- Use Ideal Air Loads

OS:Node,
  {1812fb6a-7bac-4716-84ad-99f69d5dc884}, !- Handle
  Node 2,                                 !- Name
  {bcd7a1a6-c0ae-41c8-8026-fc1bbe4f0cd3}, !- Inlet Port
  ;                                       !- Outlet Port

OS:Connection,
  {bcd7a1a6-c0ae-41c8-8026-fc1bbe4f0cd3}, !- Handle
  {0a781caa-573c-410c-9ba7-99f1b076f345}, !- Name
  {a5321887-14fb-49e6-b1a9-08c97ca06a5c}, !- Source Object
  11,                                     !- Outlet Port
  {1812fb6a-7bac-4716-84ad-99f69d5dc884}, !- Target Object
  2;                                      !- Inlet Port

OS:PortList,
  {d83db4ad-a5a5-475c-b0c9-58f0a7183132}, !- Handle
  {2664f5ef-0f7c-4cc5-b270-5c224b65ac75}, !- Name
  {a5321887-14fb-49e6-b1a9-08c97ca06a5c}; !- HVAC Component

OS:PortList,
  {a50968af-9e98-4223-b1ec-aaff1f5ed62d}, !- Handle
  {57947ea3-b6aa-4d89-ab99-ba8128f6d53a}, !- Name
  {a5321887-14fb-49e6-b1a9-08c97ca06a5c}; !- HVAC Component

OS:PortList,
  {09c2c529-db36-46a2-a3af-e3e61666d77a}, !- Handle
  {e263de9a-470b-4635-875c-39dfa51da0fb}, !- Name
  {a5321887-14fb-49e6-b1a9-08c97ca06a5c}; !- HVAC Component

OS:Sizing:Zone,
  {dbbbbe9a-85a4-4692-8e06-0c737d7b038f}, !- Handle
  {a5321887-14fb-49e6-b1a9-08c97ca06a5c}, !- Zone or ZoneList Name
  SupplyAirTemperature,                   !- Zone Cooling Design Supply Air Temperature Input Method
  14,                                     !- Zone Cooling Design Supply Air Temperature {C}
  11.11,                                  !- Zone Cooling Design Supply Air Temperature Difference {deltaC}
  SupplyAirTemperature,                   !- Zone Heating Design Supply Air Temperature Input Method
  40,                                     !- Zone Heating Design Supply Air Temperature {C}
  11.11,                                  !- Zone Heating Design Supply Air Temperature Difference {deltaC}
  0.0085,                                 !- Zone Cooling Design Supply Air Humidity Ratio {kg-H2O/kg-air}
  0.008,                                  !- Zone Heating Design Supply Air Humidity Ratio {kg-H2O/kg-air}
  ,                                       !- Zone Heating Sizing Factor
  ,                                       !- Zone Cooling Sizing Factor
  DesignDay,                              !- Cooling Design Air Flow Method
  ,                                       !- Cooling Design Air Flow Rate {m3/s}
  ,                                       !- Cooling Minimum Air Flow per Zone Floor Area {m3/s-m2}
  ,                                       !- Cooling Minimum Air Flow {m3/s}
  ,                                       !- Cooling Minimum Air Flow Fraction
  DesignDay,                              !- Heating Design Air Flow Method
  ,                                       !- Heating Design Air Flow Rate {m3/s}
  ,                                       !- Heating Maximum Air Flow per Zone Floor Area {m3/s-m2}
  ,                                       !- Heating Maximum Air Flow {m3/s}
  ,                                       !- Heating Maximum Air Flow Fraction
  ,                                       !- Design Zone Air Distribution Effectiveness in Cooling Mode
  ,                                       !- Design Zone Air Distribution Effectiveness in Heating Mode
  No,                                     !- Account for Dedicated Outdoor Air System
  NeutralSupplyAir,                       !- Dedicated Outdoor Air System Control Strategy
  autosize,                               !- Dedicated Outdoor Air Low Setpoint Temperature for Design {C}
  autosize;                               !- Dedicated Outdoor Air High Setpoint Temperature for Design {C}

OS:ZoneHVAC:EquipmentList,
  {44f19f10-da46-430b-b16f-db86008c50ee}, !- Handle
  Zone HVAC Equipment List 2,             !- Name
  {a5321887-14fb-49e6-b1a9-08c97ca06a5c}; !- Thermal Zone

OS:Space,
  {4622acf0-c9a1-45cd-a37c-cbbfc7826845}, !- Handle
  living space|unit 2|story 1,            !- Name
  {795b1b79-07e1-4b2e-8b8e-14d7a5f51029}, !- Space Type Name
  ,                                       !- Default Construction Set Name
  ,                                       !- Default Schedule Set Name
  -0,                                     !- Direction of Relative North {deg}
  0,                                      !- X Origin {m}
  0,                                      !- Y Origin {m}
  0,                                      !- Z Origin {m}
  ,                                       !- Building Story Name
  {a5321887-14fb-49e6-b1a9-08c97ca06a5c}, !- Thermal Zone Name
  ,                                       !- Part of Total Floor Area
  ,                                       !- Design Specification Outdoor Air Object Name
  {0bfaa459-c984-4da2-99a8-2367d8b02117}; !- Building Unit Name

OS:Surface,
  {59cd6d71-62c7-4336-9eb5-61517f7bd130}, !- Handle
  Surface 18,                             !- Name
  Wall,                                   !- Surface Type
  ,                                       !- Construction Name
  {4622acf0-c9a1-45cd-a37c-cbbfc7826845}, !- Space Name
  Outdoors,                               !- Outside Boundary Condition
  ,                                       !- Outside Boundary Condition Object
  SunExposed,                             !- Sun Exposure
  WindExposed,                            !- Wind Exposure
  ,                                       !- View Factor to Ground
  ,                                       !- Number of Vertices
  9.144, 0, 2.4384,                       !- X,Y,Z Vertex 1 {m}
  9.144, 0, 0,                            !- X,Y,Z Vertex 2 {m}
  4.572, 0, 0,                            !- X,Y,Z Vertex 3 {m}
  4.572, 0, 2.4384;                       !- X,Y,Z Vertex 4 {m}

OS:Surface,
  {f5c9123c-dd48-4dd2-bcc4-b415b9268c7a}, !- Handle
  Surface 19,                             !- Name
  Wall,                                   !- Surface Type
  ,                                       !- Construction Name
  {4622acf0-c9a1-45cd-a37c-cbbfc7826845}, !- Space Name
  Surface,                                !- Outside Boundary Condition
  {1847b7f9-8c49-4ec0-b321-506e47e4bf9f}, !- Outside Boundary Condition Object
  NoSun,                                  !- Sun Exposure
  NoWind,                                 !- Wind Exposure
  ,                                       !- View Factor to Ground
  ,                                       !- Number of Vertices
  9.144, -9.144, 2.4384,                  !- X,Y,Z Vertex 1 {m}
  9.144, -9.144, 0,                       !- X,Y,Z Vertex 2 {m}
  9.144, 0, 0,                            !- X,Y,Z Vertex 3 {m}
  9.144, 0, 2.4384;                       !- X,Y,Z Vertex 4 {m}

OS:Surface,