!- NOTE: Auto-generated from /test/osw_files/SFA_4units_1story_UB_UA_3Beds_2Baths_Denver_WHTank.osw

OS:Version,
  {097284a9-4d9e-440e-a275-b51e819efcc1}, !- Handle
  2.9.0;                                  !- Version Identifier

OS:SimulationControl,
  {a2618c55-d4ab-4b72-ae1f-4dbfb241da40}, !- Handle
  ,                                       !- Do Zone Sizing Calculation
  ,                                       !- Do System Sizing Calculation
  ,                                       !- Do Plant Sizing Calculation
  No;                                     !- Run Simulation for Sizing Periods

OS:Timestep,
  {109ee608-fbbd-4830-97c6-b800e16e4ab1}, !- Handle
  6;                                      !- Number of Timesteps per Hour

OS:ShadowCalculation,
  {4d64ee9e-a5f4-4162-ab00-b3f3231f2266}, !- Handle
  20,                                     !- Calculation Frequency
  200;                                    !- Maximum Figures in Shadow Overlap Calculations

OS:SurfaceConvectionAlgorithm:Outside,
  {06e44484-8972-4923-996d-35986eb9585c}, !- Handle
  DOE-2;                                  !- Algorithm

OS:SurfaceConvectionAlgorithm:Inside,
  {d3105234-9ca9-4526-bb76-607244b0194e}, !- Handle
  TARP;                                   !- Algorithm

OS:ZoneCapacitanceMultiplier:ResearchSpecial,
  {7a716c5c-3422-4450-93db-34809e42a456}, !- Handle
  ,                                       !- Temperature Capacity Multiplier
  15,                                     !- Humidity Capacity Multiplier
  ;                                       !- Carbon Dioxide Capacity Multiplier

OS:RunPeriod,
  {a2517423-2a98-46e5-bca5-eb88d4c520fe}, !- Handle
  Run Period 1,                           !- Name
  1,                                      !- Begin Month
  1,                                      !- Begin Day of Month
  12,                                     !- End Month
  31,                                     !- End Day of Month
  ,                                       !- Use Weather File Holidays and Special Days
  ,                                       !- Use Weather File Daylight Saving Period
  ,                                       !- Apply Weekend Holiday Rule
  ,                                       !- Use Weather File Rain Indicators
  ,                                       !- Use Weather File Snow Indicators
  ;                                       !- Number of Times Runperiod to be Repeated

OS:YearDescription,
  {d876dfd2-d4a0-45bb-8d82-c7b8da3e81eb}, !- Handle
  2007,                                   !- Calendar Year
  ,                                       !- Day of Week for Start Day
  ;                                       !- Is Leap Year

OS:ThermalZone,
  {a51a0fab-6644-45ec-916a-bb2862bea68b}, !- Handle
  living zone,                            !- Name
  ,                                       !- Multiplier
  ,                                       !- Ceiling Height {m}
  ,                                       !- Volume {m3}
  ,                                       !- Floor Area {m2}
  ,                                       !- Zone Inside Convection Algorithm
  ,                                       !- Zone Outside Convection Algorithm
  ,                                       !- Zone Conditioning Equipment List Name
  {2c90aeff-9700-412a-8f48-02367a72438a}, !- Zone Air Inlet Port List
  {843b377e-12e4-49e5-b46b-d75080e039cc}, !- Zone Air Exhaust Port List
  {1fc45204-a160-41f0-8451-4acd72bec28d}, !- Zone Air Node Name
  {abc61464-a346-4361-b8fd-66d810f1c967}, !- Zone Return Air Port List
  ,                                       !- Primary Daylighting Control Name
  ,                                       !- Fraction of Zone Controlled by Primary Daylighting Control
  ,                                       !- Secondary Daylighting Control Name
  ,                                       !- Fraction of Zone Controlled by Secondary Daylighting Control
  ,                                       !- Illuminance Map Name
  ,                                       !- Group Rendering Name
  ,                                       !- Thermostat Name
  No;                                     !- Use Ideal Air Loads

OS:Node,
  {48439676-e44b-45a2-8f6e-9caa9aa575be}, !- Handle
  Node 1,                                 !- Name
  {1fc45204-a160-41f0-8451-4acd72bec28d}, !- Inlet Port
  ;                                       !- Outlet Port

OS:Connection,
  {1fc45204-a160-41f0-8451-4acd72bec28d}, !- Handle
  {39cac715-11d4-49f4-b482-0262eaf4e538}, !- Name
  {a51a0fab-6644-45ec-916a-bb2862bea68b}, !- Source Object
  11,                                     !- Outlet Port
  {48439676-e44b-45a2-8f6e-9caa9aa575be}, !- Target Object
  2;                                      !- Inlet Port

OS:PortList,
  {2c90aeff-9700-412a-8f48-02367a72438a}, !- Handle
  {a9a631a8-d753-4778-9958-5d0c92f6b00d}, !- Name
  {a51a0fab-6644-45ec-916a-bb2862bea68b}; !- HVAC Component

OS:PortList,
  {843b377e-12e4-49e5-b46b-d75080e039cc}, !- Handle
  {9d8fabbb-76e2-4d81-b035-65610ff9a869}, !- Name
  {a51a0fab-6644-45ec-916a-bb2862bea68b}; !- HVAC Component

OS:PortList,
  {abc61464-a346-4361-b8fd-66d810f1c967}, !- Handle
  {b75688a0-9416-4953-96a6-d1db2d386c1e}, !- Name
  {a51a0fab-6644-45ec-916a-bb2862bea68b}; !- HVAC Component

OS:Sizing:Zone,
  {fddd10d2-62fb-4758-896b-b867cb3bfbe1}, !- Handle
  {a51a0fab-6644-45ec-916a-bb2862bea68b}, !- Zone or ZoneList Name
  SupplyAirTemperature,                   !- Zone Cooling Design Supply Air Temperature Input Method
  14,                                     !- Zone Cooling Design Supply Air Temperature {C}
  11.11,                                  !- Zone Cooling Design Supply Air Temperature Difference {deltaC}
  SupplyAirTemperature,                   !- Zone Heating Design Supply Air Temperature Input Method
  40,                                     !- Zone Heating Design Supply Air Temperature {C}
  11.11,                                  !- Zone Heating Design Supply Air Temperature Difference {deltaC}
  0.0085,                                 !- Zone Cooling Design Supply Air Humidity Ratio {kg-H2O/kg-air}
  0.008,                                  !- Zone Heating Design Supply Air Humidity Ratio {kg-H2O/kg-air}
  ,                                       !- Zone Heating Sizing Factor
  ,                                       !- Zone Cooling Sizing Factor
  DesignDay,                              !- Cooling Design Air Flow Method
  ,                                       !- Cooling Design Air Flow Rate {m3/s}
  ,                                       !- Cooling Minimum Air Flow per Zone Floor Area {m3/s-m2}
  ,                                       !- Cooling Minimum Air Flow {m3/s}
  ,                                       !- Cooling Minimum Air Flow Fraction
  DesignDay,                              !- Heating Design Air Flow Method
  ,                                       !- Heating Design Air Flow Rate {m3/s}
  ,                                       !- Heating Maximum Air Flow per Zone Floor Area {m3/s-m2}
  ,                                       !- Heating Maximum Air Flow {m3/s}
  ,                                       !- Heating Maximum Air Flow Fraction
  ,                                       !- Design Zone Air Distribution Effectiveness in Cooling Mode
  ,                                       !- Design Zone Air Distribution Effectiveness in Heating Mode
  No,                                     !- Account for Dedicated Outdoor Air System
  NeutralSupplyAir,                       !- Dedicated Outdoor Air System Control Strategy
  autosize,                               !- Dedicated Outdoor Air Low Setpoint Temperature for Design {C}
  autosize;                               !- Dedicated Outdoor Air High Setpoint Temperature for Design {C}

OS:ZoneHVAC:EquipmentList,
  {03c0e205-8391-45cd-ad89-c42003b0e534}, !- Handle
  Zone HVAC Equipment List 1,             !- Name
  {a51a0fab-6644-45ec-916a-bb2862bea68b}; !- Thermal Zone

OS:Space,
  {98b40efd-34ba-4fba-b565-d73795cf62d1}, !- Handle
  living space,                           !- Name
  {4d585b1d-63cb-47f4-a330-b7ac0523d1c5}, !- Space Type Name
  ,                                       !- Default Construction Set Name
  ,                                       !- Default Schedule Set Name
  ,                                       !- Direction of Relative North {deg}
  ,                                       !- X Origin {m}
  ,                                       !- Y Origin {m}
  ,                                       !- Z Origin {m}
  ,                                       !- Building Story Name
  {a51a0fab-6644-45ec-916a-bb2862bea68b}, !- Thermal Zone Name
  ,                                       !- Part of Total Floor Area
  ,                                       !- Design Specification Outdoor Air Object Name
  {7578980a-be83-4b91-89d8-e34b8653d11c}; !- Building Unit Name

OS:Surface,
  {ebc0db67-e3ef-49e6-9720-9ea443e46662}, !- Handle
  Surface 1,                              !- Name
  Floor,                                  !- Surface Type
  ,                                       !- Construction Name
  {98b40efd-34ba-4fba-b565-d73795cf62d1}, !- Space Name
  Surface,                                !- Outside Boundary Condition
  {35246548-312d-4c23-82f4-9fb4665cf537}, !- Outside Boundary Condition Object
  NoSun,                                  !- Sun Exposure
  NoWind,                                 !- Wind Exposure
  ,                                       !- View Factor to Ground
  ,                                       !- Number of Vertices
  0, -12.9315688143396, 0,                !- X,Y,Z Vertex 1 {m}
  0, 0, 0,                                !- X,Y,Z Vertex 2 {m}
  6.46578440716979, 0, 0,                 !- X,Y,Z Vertex 3 {m}
  6.46578440716979, -12.9315688143396, 0; !- X,Y,Z Vertex 4 {m}

OS:Surface,
  {06235bc8-446c-415f-9cec-02d964c8fcf9}, !- Handle
  Surface 2,                              !- Name
  Wall,                                   !- Surface Type
  ,                                       !- Construction Name
  {98b40efd-34ba-4fba-b565-d73795cf62d1}, !- Space Name
  Outdoors,                               !- Outside Boundary Condition
  ,                                       !- Outside Boundary Condition Object
  SunExposed,                             !- Sun Exposure
  WindExposed,                            !- Wind Exposure
  ,                                       !- View Factor to Ground
  ,                                       !- Number of Vertices
  0, 0, 2.4384,                           !- X,Y,Z Vertex 1 {m}
  0, 0, 0,                                !- X,Y,Z Vertex 2 {m}
  0, -12.9315688143396, 0,                !- X,Y,Z Vertex 3 {m}
  0, -12.9315688143396, 2.4384;           !- X,Y,Z Vertex 4 {m}

OS:Surface,
  {d8c60953-65ed-48bd-a6f6-cba342458017}, !- Handle
  Surface 3,                              !- Name
  Wall,                                   !- Surface Type
  ,                                       !- Construction Name
  {98b40efd-34ba-4fba-b565-d73795cf62d1}, !- Space Name
  Outdoors,                               !- Outside Boundary Condition
  ,                                       !- Outside Boundary Condition Object
  SunExposed,                             !- Sun Exposure
  WindExposed,                            !- Wind Exposure
  ,                                       !- View Factor to Ground
  ,                                       !- Number of Vertices
  6.46578440716979, 0, 2.4384,            !- X,Y,Z Vertex 1 {m}
  6.46578440716979, 0, 0,                 !- X,Y,Z Vertex 2 {m}
  0, 0, 0,                                !- X,Y,Z Vertex 3 {m}
  0, 0, 2.4384;                           !- X,Y,Z Vertex 4 {m}

OS:Surface,
  {85573a83-31ae-49a2-8b4c-bbb902bf34ec}, !- Handle
  Surface 4,                              !- Name
  Wall,                                   !- Surface Type
  ,                                       !- Construction Name
  {98b40efd-34ba-4fba-b565-d73795cf62d1}, !- Space Name
  Surface,                                !- Outside Boundary Condition
  {e26bae5f-2594-489d-86ec-b953dffce499}, !- Outside Boundary Condition Object
  NoSun,                                  !- Sun Exposure
  NoWind,                                 !- Wind Exposure
  ,                                       !- View Factor to Ground
  ,                                       !- Number of Vertices
  6.46578440716979, -12.9315688143396, 2.4384, !- X,Y,Z Vertex 1 {m}
  6.46578440716979, -12.9315688143396, 0, !- X,Y,Z Vertex 2 {m}
  6.46578440716979, 0, 0,                 !- X,Y,Z Vertex 3 {m}
  6.46578440716979, 0, 2.4384;            !- X,Y,Z Vertex 4 {m}

OS:Surface,
  {7e0d4d1e-0b96-4a07-a5c2-fb8aa14d1ad4}, !- Handle
  Surface 5,                              !- Name
  Wall,                                   !- Surface Type
  ,                                       !- Construction Name
  {98b40efd-34ba-4fba-b565-d73795cf62d1}, !- Space Name
  Outdoors,                               !- Outside Boundary Condition
  ,                                       !- Outside Boundary Condition Object
  SunExposed,                             !- Sun Exposure
  WindExposed,                            !- Wind Exposure
  ,                                       !- View Factor to Ground
  ,                                       !- Number of Vertices
  0, -12.9315688143396, 2.4384,           !- X,Y,Z Vertex 1 {m}
  0, -12.9315688143396, 0,                !- X,Y,Z Vertex 2 {m}
  6.46578440716979, -12.9315688143396, 0, !- X,Y,Z Vertex 3 {m}
  6.46578440716979, -12.9315688143396, 2.4384; !- X,Y,Z Vertex 4 {m}

OS:Surface,
  {631f08ff-236f-4991-a192-181d565f38c1}, !- Handle
  Surface 6,                              !- Name
  RoofCeiling,                            !- Surface Type
  ,                                       !- Construction Name
  {98b40efd-34ba-4fba-b565-d73795cf62d1}, !- Space Name
  Surface,                                !- Outside Boundary Condition
  {d1e51a58-8d2a-4d11-9a7b-598350a48283}, !- Outside Boundary Condition Object
  NoSun,                                  !- Sun Exposure
  NoWind,                                 !- Wind Exposure
  ,                                       !- View Factor to Ground
  ,                                       !- Number of Vertices
  6.46578440716979, -12.9315688143396, 2.4384, !- X,Y,Z Vertex 1 {m}
  6.46578440716979, 0, 2.4384,            !- X,Y,Z Vertex 2 {m}
  0, 0, 2.4384,                           !- X,Y,Z Vertex 3 {m}
  0, -12.9315688143396, 2.4384;           !- X,Y,Z Vertex 4 {m}

OS:SpaceType,
  {4d585b1d-63cb-47f4-a330-b7ac0523d1c5}, !- Handle
  Space Type 1,                           !- Name
  ,                                       !- Default Construction Set Name
  ,                                       !- Default Schedule Set Name
  ,                                       !- Group Rendering Name
  ,                                       !- Design Specification Outdoor Air Object Name
  ,                                       !- Standards Template
  ,                                       !- Standards Building Type
  living;                                 !- Standards Space Type

OS:ThermalZone,
  {bf4d5993-59a5-42f6-bceb-efbd7caf2e62}, !- Handle
  living zone|unit 2,                     !- Name
  ,                                       !- Multiplier
  ,                                       !- Ceiling Height {m}
  ,                                       !- Volume {m3}
  ,                                       !- Floor Area {m2}
  ,                                       !- Zone Inside Convection Algorithm
  ,                                       !- Zone Outside Convection Algorithm
  ,                                       !- Zone Conditioning Equipment List Name
  {3f3ee936-5d31-42f5-96a6-3ff60e9682ef}, !- Zone Air Inlet Port List
  {f816a68c-38e0-4900-9feb-c6bc913937d6}, !- Zone Air Exhaust Port List
  {076c0366-1e4d-44ec-864a-7ef4914ce091}, !- Zone Air Node Name
  {c8580967-12bc-4880-862f-1a3dcbe0fa4b}, !- Zone Return Air Port List
  ,                                       !- Primary Daylighting Control Name
  ,                                       !- Fraction of Zone Controlled by Primary Daylighting Control
  ,                                       !- Secondary Daylighting Control Name
  ,                                       !- Fraction of Zone Controlled by Secondary Daylighting Control
  ,                                       !- Illuminance Map Name
  ,                                       !- Group Rendering Name
  ,                                       !- Thermostat Name
  No;                                     !- Use Ideal Air Loads

OS:Node,
  {9035cd2d-2402-49fd-9055-2e6bd96f178f}, !- Handle
  Node 2,                                 !- Name
  {076c0366-1e4d-44ec-864a-7ef4914ce091}, !- Inlet Port
  ;                                       !- Outlet Port

OS:Connection,
  {076c0366-1e4d-44ec-864a-7ef4914ce091}, !- Handle
  {ba3d54e3-eea7-4589-8ecb-6a74bed9e34a}, !- Name
  {bf4d5993-59a5-42f6-bceb-efbd7caf2e62}, !- Source Object
  11,                                     !- Outlet Port
  {9035cd2d-2402-49fd-9055-2e6bd96f178f}, !- Target Object
  2;                                      !- Inlet Port

OS:PortList,
  {3f3ee936-5d31-42f5-96a6-3ff60e9682ef}, !- Handle
  {0d6dd81e-fa5d-4335-a065-974f783c07d5}, !- Name
  {bf4d5993-59a5-42f6-bceb-efbd7caf2e62}; !- HVAC Component

OS:PortList,
  {f816a68c-38e0-4900-9feb-c6bc913937d6}, !- Handle
  {1ad9171c-19cb-4953-8622-82417d7af5de}, !- Name
  {bf4d5993-59a5-42f6-bceb-efbd7caf2e62}; !- HVAC Component

OS:PortList,
  {c8580967-12bc-4880-862f-1a3dcbe0fa4b}, !- Handle
  {1e900b54-ee10-4fa4-8521-25f99824ae38}, !- Name
  {bf4d5993-59a5-42f6-bceb-efbd7caf2e62}; !- HVAC Component

OS:Sizing:Zone,
  {00dab80c-f7ba-4643-8a95-fe061da47da1}, !- Handle
  {bf4d5993-59a5-42f6-bceb-efbd7caf2e62}, !- Zone or ZoneList Name
  SupplyAirTemperature,                   !- Zone Cooling Design Supply Air Temperature Input Method
  14,                                     !- Zone Cooling Design Supply Air Temperature {C}
  11.11,                                  !- Zone Cooling Design Supply Air Temperature Difference {deltaC}
  SupplyAirTemperature,                   !- Zone Heating Design Supply Air Temperature Input Method
  40,                                     !- Zone Heating Design Supply Air Temperature {C}
  11.11,                                  !- Zone Heating Design Supply Air Temperature Difference {deltaC}
  0.0085,                                 !- Zone Cooling Design Supply Air Humidity Ratio {kg-H2O/kg-air}
  0.008,                                  !- Zone Heating Design Supply Air Humidity Ratio {kg-H2O/kg-air}
  ,                                       !- Zone Heating Sizing Factor
  ,                                       !- Zone Cooling Sizing Factor
  DesignDay,                              !- Cooling Design Air Flow Method
  ,                                       !- Cooling Design Air Flow Rate {m3/s}
  ,                                       !- Cooling Minimum Air Flow per Zone Floor Area {m3/s-m2}
  ,                                       !- Cooling Minimum Air Flow {m3/s}
  ,                                       !- Cooling Minimum Air Flow Fraction
  DesignDay,                              !- Heating Design Air Flow Method
  ,                                       !- Heating Design Air Flow Rate {m3/s}
  ,                                       !- Heating Maximum Air Flow per Zone Floor Area {m3/s-m2}
  ,                                       !- Heating Maximum Air Flow {m3/s}
  ,                                       !- Heating Maximum Air Flow Fraction
  ,                                       !- Design Zone Air Distribution Effectiveness in Cooling Mode
  ,                                       !- Design Zone Air Distribution Effectiveness in Heating Mode
  No,                                     !- Account for Dedicated Outdoor Air System
  NeutralSupplyAir,                       !- Dedicated Outdoor Air System Control Strategy
  autosize,                               !- Dedicated Outdoor Air Low Setpoint Temperature for Design {C}
  autosize;                               !- Dedicated Outdoor Air High Setpoint Temperature for Design {C}

OS:ZoneHVAC:EquipmentList,
  {897fbf9c-75c1-46ef-9fba-6aa834d10a22}, !- Handle
  Zone HVAC Equipment List 2,             !- Name
  {bf4d5993-59a5-42f6-bceb-efbd7caf2e62}; !- Thermal Zone

OS:Space,
  {96a950b9-aaab-4c05-b0dc-847bb893363e}, !- Handle
  living space|unit 2|story 1,            !- Name
  {4d585b1d-63cb-47f4-a330-b7ac0523d1c5}, !- Space Type Name
  ,                                       !- Default Construction Set Name
  ,                                       !- Default Schedule Set Name
  -0,                                     !- Direction of Relative North {deg}
  0,                                      !- X Origin {m}
  0,                                      !- Y Origin {m}
  0,                                      !- Z Origin {m}
  ,                                       !- Building Story Name
  {bf4d5993-59a5-42f6-bceb-efbd7caf2e62}, !- Thermal Zone Name
  ,                                       !- Part of Total Floor Area
  ,                                       !- Design Specification Outdoor Air Object Name
  {30493f29-c0fd-40e2-b15c-7cdda66bc324}; !- Building Unit Name

OS:Surface,
  {21ce9f88-c70c-450b-afb4-6609dad290b0}, !- Handle
  Surface 12,                             !- Name
  Wall,                                   !- Surface Type
  ,                                       !- Construction Name
  {96a950b9-aaab-4c05-b0dc-847bb893363e}, !- Space Name
  Outdoors,                               !- Outside Boundary Condition
  ,                                       !- Outside Boundary Condition Object
  SunExposed,                             !- Sun Exposure
  WindExposed,                            !- Wind Exposure
  ,                                       !- View Factor to Ground
  ,                                       !- Number of Vertices
  12.9315688143396, 0, 2.4384,            !- X,Y,Z Vertex 1 {m}
  12.9315688143396, 0, 0,                 !- X,Y,Z Vertex 2 {m}
  6.46578440716979, 0, 0,                 !- X,Y,Z Vertex 3 {m}
  6.46578440716979, 0, 2.4384;            !- X,Y,Z Vertex 4 {m}

OS:Surface,
  {13a56644-a8e3-4c1e-93ca-0107bcf151e0}, !- Handle
  Surface 13,                             !- Name
  RoofCeiling,                            !- Surface Type
  ,                                       !- Construction Name
  {96a950b9-aaab-4c05-b0dc-847bb893363e}, !- Space Name
  Surface,                                !- Outside Boundary Condition
  {d89e578e-e8ae-4b87-aa48-03703bf1c3f5}, !- Outside Boundary Condition Object
  NoSun,                                  !- Sun Exposure
  NoWind,                                 !- Wind Exposure
  ,                                       !- View Factor to Ground
  ,                                       !- Number of Vertices
  12.9315688143396, -12.9315688143396, 2.4384, !- X,Y,Z Vertex 1 {m}
  12.9315688143396, 0, 2.4384,            !- X,Y,Z Vertex 2 {m}
  6.46578440716979, 0, 2.4384,            !- X,Y,Z Vertex 3 {m}
  6.46578440716979, -12.9315688143396, 2.4384; !- X,Y,Z Vertex 4 {m}

OS:Surface,
  {9dafab28-0c88-43b2-b9e4-b4731c997d8c}, !- Handle
  Surface 14,                             !- Name
  Floor,                                  !- Surface Type
  ,                                       !- Construction Name
  {96a950b9-aaab-4c05-b0dc-847bb893363e}, !- Space Name
  Surface,                                !- Outside Boundary Condition
  {9fd2ddf7-c407-496f-869e-e91a187e336c}, !- Outside Boundary Condition Object
  NoSun,                                  !- Sun Exposure
  NoWind,                                 !- Wind Exposure
  ,                                       !- View Factor to Ground
  ,                                       !- Number of Vertices
  6.46578440716979, -12.9315688143396, 0, !- X,Y,Z Vertex 1 {m}
  6.46578440716979, 0, 0,                 !- X,Y,Z Vertex 2 {m}
  12.9315688143396, 0, 0,                 !- X,Y,Z Vertex 3 {m}
  12.9315688143396, -12.9315688143396, 0; !- X,Y,Z Vertex 4 {m}

OS:Surface,
  {c71fac9b-a7a9-4bb3-ad03-dc74bba22ef0}, !- Handle
  Surface 15,                             !- Name
  Wall,                                   !- Surface Type
  ,                                       !- Construction Name
  {96a950b9-aaab-4c05-b0dc-847bb893363e}, !- Space Name
  Outdoors,                               !- Outside Boundary Condition
  ,                                       !- Outside Boundary Condition Object
  SunExposed,                             !- Sun Exposure
  WindExposed,                            !- Wind Exposure
  ,                                       !- View Factor to Ground
  ,                                       !- Number of Vertices
  6.46578440716979, -12.9315688143396, 2.4384, !- X,Y,Z Vertex 1 {m}
  6.46578440716979, -12.9315688143396, 0, !- X,Y,Z Vertex 2 {m}
  12.9315688143396, -12.9315688143396, 0, !- X,Y,Z Vertex 3 {m}
  12.9315688143396, -12.9315688143396, 2.4384; !- X,Y,Z Vertex 4 {m}

OS:Surface,
  {557bdc2f-69c5-4b6d-acd7-eba27aabf908}, !- Handle
  Surface 16,                             !- Name
  Wall,                                   !- Surface Type
  ,                                       !- Construction Name
  {96a950b9-aaab-4c05-b0dc-847bb893363e}, !- Space Name
  Surface,                                !- Outside Boundary Condition
  {04bce3c8-2c94-427a-a864-0ae7fccebc96}, !- Outside Boundary Condition Object
  NoSun,                                  !- Sun Exposure
  NoWind,                                 !- Wind Exposure
  ,                                       !- View Factor to Ground
  ,                                       !- Number of Vertices
  12.9315688143396, -12.9315688143396, 2.4384, !- X,Y,Z Vertex 1 {m}
  12.9315688143396, -12.9315688143396, 0, !- X,Y,Z Vertex 2 {m}
  12.9315688143396, 0, 0,                 !- X,Y,Z Vertex 3 {m}
  12.9315688143396, 0, 2.4384;            !- X,Y,Z Vertex 4 {m}

OS:Surface,
  {e26bae5f-2594-489d-86ec-b953dffce499}, !- Handle
  Surface 17,                             !- Name
  Wall,                                   !- Surface Type
  ,                                       !- Construction Name
  {96a950b9-aaab-4c05-b0dc-847bb893363e}, !- Space Name
  Surface,                                !- Outside Boundary Condition
  {85573a83-31ae-49a2-8b4c-bbb902bf34ec}, !- Outside Boundary Condition Object
  NoSun,                                  !- Sun Exposure
  NoWind,                                 !- Wind Exposure
  ,                                       !- View Factor to Ground
  ,                                       !- Number of Vertices
  6.46578440716979, 0, 2.4384,            !- X,Y,Z Vertex 1 {m}
  6.46578440716979, 0, 0,                 !- X,Y,Z Vertex 2 {m}
  6.46578440716979, -12.9315688143396, 0, !- X,Y,Z Vertex 3 {m}
  6.46578440716979, -12.9315688143396, 2.4384; !- X,Y,Z Vertex 4 {m}

OS:ThermalZone,
  {b8842b72-e751-4400-aed7-ed88af01ee70}, !- Handle
  living zone|unit 3,                     !- Name
  ,                                       !- Multiplier
  ,                                       !- Ceiling Height {m}
  ,                                       !- Volume {m3}
  ,                                       !- Floor Area {m2}
  ,                                       !- Zone Inside Convection Algorithm
  ,                                       !- Zone Outside Convection Algorithm
  ,                                       !- Zone Conditioning Equipment List Name
  {04a61181-7567-4a90-9e12-dc1d9f9e283f}, !- Zone Air Inlet Port List
  {603747a1-e2e0-4c83-b38f-7874360b2dda}, !- Zone Air Exhaust Port List
  {32daaac0-52a3-4113-a453-135db8c424ba}, !- Zone Air Node Name
  {c5eb53c7-82d1-40e8-bfc6-72751aa4c517}, !- Zone Return Air Port List
  ,                                       !- Primary Daylighting Control Name
  ,                                       !- Fraction of Zone Controlled by Primary Daylighting Control
  ,                                       !- Secondary Daylighting Control Name
  ,                                       !- Fraction of Zone Controlled by Secondary Daylighting Control
  ,                                       !- Illuminance Map Name
  ,                                       !- Group Rendering Name
  ,                                       !- Thermostat Name
  No;                                     !- Use Ideal Air Loads

OS:Node,
  {678d4f85-4e11-474a-90ea-90d6cb94b4e9}, !- Handle
  Node 3,                                 !- Name
  {32daaac0-52a3-4113-a453-135db8c424ba}, !- Inlet Port
  ;                                       !- Outlet Port

OS:Connection,
  {32daaac0-52a3-4113-a453-135db8c424ba}, !- Handle
  {bd69a42c-f8bd-4277-bea1-c133d794f1e1}, !- Name
  {b8842b72-e751-4400-aed7-ed88af01ee70}, !- Source Object
  11,                                     !- Outlet Port
  {678d4f85-4e11-474a-90ea-90d6cb94b4e9}, !- Target Object
  2;                                      !- Inlet Port

OS:PortList,
  {04a61181-7567-4a90-9e12-dc1d9f9e283f}, !- Handle
  {199c9d75-72fe-4e0e-9102-2eb88b38ef37}, !- Name
  {b8842b72-e751-4400-aed7-ed88af01ee70}; !- HVAC Component

OS:PortList,
  {603747a1-e2e0-4c83-b38f-7874360b2dda}, !- Handle
  {6ff2a8c6-299b-457d-b9e3-83a3830425d3}, !- Name
  {b8842b72-e751-4400-aed7-ed88af01ee70}; !- HVAC Component

OS:PortList,
  {c5eb53c7-82d1-40e8-bfc6-72751aa4c517}, !- Handle
  {30f8876c-05de-4eaf-9d2e-71bf6257b1be}, !- Name
  {b8842b72-e751-4400-aed7-ed88af01ee70}; !- HVAC Component

OS:Sizing:Zone,
  {73d6d877-ddae-4021-b73d-644756d3f145}, !- Handle
  {b8842b72-e751-4400-aed7-ed88af01ee70}, !- Zone or ZoneList Name