!- NOTE: Auto-generated from /test/osw_files/SFA_10units_2story_UB_UA_3Beds_2Baths_Denver.osw

OS:Version,
  {0d070dc2-668d-454b-8af9-d8a0ac60a698}, !- Handle
  2.8.0;                                  !- Version Identifier

OS:SimulationControl,
  {743488f4-8c6b-4719-bdc6-47eb528b2a93}, !- Handle
  ,                                       !- Do Zone Sizing Calculation
  ,                                       !- Do System Sizing Calculation
  ,                                       !- Do Plant Sizing Calculation
  No;                                     !- Run Simulation for Sizing Periods

OS:Timestep,
  {31af0948-a5b9-4bfb-b793-2979318f46e3}, !- Handle
  6;                                      !- Number of Timesteps per Hour

OS:ShadowCalculation,
  {27ee2097-bc41-43d0-9a45-e62c1c22fd88}, !- Handle
  20,                                     !- Calculation Frequency
  200;                                    !- Maximum Figures in Shadow Overlap Calculations

OS:SurfaceConvectionAlgorithm:Outside,
  {af64a12a-ecd1-4530-8114-bc6b0f874841}, !- Handle
  DOE-2;                                  !- Algorithm

OS:SurfaceConvectionAlgorithm:Inside,
  {f7af3a1b-f8b2-4173-8454-12b71ba2becc}, !- Handle
  TARP;                                   !- Algorithm

OS:ZoneCapacitanceMultiplier:ResearchSpecial,
  {d9e9444d-7a24-4359-b376-93633712aca9}, !- Handle
  ,                                       !- Temperature Capacity Multiplier
  15,                                     !- Humidity Capacity Multiplier
  ;                                       !- Carbon Dioxide Capacity Multiplier

OS:RunPeriod,
  {d73d0b44-8782-4a70-b875-57bce01d7227}, !- Handle
  Run Period 1,                           !- Name
  1,                                      !- Begin Month
  1,                                      !- Begin Day of Month
  12,                                     !- End Month
  31,                                     !- End Day of Month
  ,                                       !- Use Weather File Holidays and Special Days
  ,                                       !- Use Weather File Daylight Saving Period
  ,                                       !- Apply Weekend Holiday Rule
  ,                                       !- Use Weather File Rain Indicators
  ,                                       !- Use Weather File Snow Indicators
  ;                                       !- Number of Times Runperiod to be Repeated

OS:ThermalZone,
  {30f4b6f6-b8af-40d4-a5a2-326951ffc389}, !- Handle
  living zone,                            !- Name
  ,                                       !- Multiplier
  ,                                       !- Ceiling Height {m}
  ,                                       !- Volume {m3}
  ,                                       !- Floor Area {m2}
  ,                                       !- Zone Inside Convection Algorithm
  ,                                       !- Zone Outside Convection Algorithm
  ,                                       !- Zone Conditioning Equipment List Name
  {fcb6b7c3-d4c6-4fb5-af51-3bce5fe786a9}, !- Zone Air Inlet Port List
  {ec5ac87e-54fe-48ac-aae5-9054186480f3}, !- Zone Air Exhaust Port List
  {a50b0e96-2410-4f3c-9a30-46881e7d1cdb}, !- Zone Air Node Name
  {824ca740-c264-414e-aea1-a98343c26903}, !- Zone Return Air Port List
  ,                                       !- Primary Daylighting Control Name
  ,                                       !- Fraction of Zone Controlled by Primary Daylighting Control
  ,                                       !- Secondary Daylighting Control Name
  ,                                       !- Fraction of Zone Controlled by Secondary Daylighting Control
  ,                                       !- Illuminance Map Name
  ,                                       !- Group Rendering Name
  ,                                       !- Thermostat Name
  No;                                     !- Use Ideal Air Loads

OS:Node,
  {d4981e99-66d4-4d6a-83ba-469a39327068}, !- Handle
  Node 1,                                 !- Name
  {a50b0e96-2410-4f3c-9a30-46881e7d1cdb}, !- Inlet Port
  ;                                       !- Outlet Port

OS:Connection,
  {a50b0e96-2410-4f3c-9a30-46881e7d1cdb}, !- Handle
  {7c39a0bf-399a-40bd-917f-bafcf53fe21d}, !- Name
  {30f4b6f6-b8af-40d4-a5a2-326951ffc389}, !- Source Object
  11,                                     !- Outlet Port
  {d4981e99-66d4-4d6a-83ba-469a39327068}, !- Target Object
  2;                                      !- Inlet Port

OS:PortList,
  {fcb6b7c3-d4c6-4fb5-af51-3bce5fe786a9}, !- Handle
  {f90dddd6-c42d-4eae-bf30-340524aff3cd}, !- Name
  {30f4b6f6-b8af-40d4-a5a2-326951ffc389}; !- HVAC Component

OS:PortList,
  {ec5ac87e-54fe-48ac-aae5-9054186480f3}, !- Handle
  {e4e101b8-45d5-4099-88c7-87f1ce75bfec}, !- Name
  {30f4b6f6-b8af-40d4-a5a2-326951ffc389}; !- HVAC Component

OS:PortList,
  {824ca740-c264-414e-aea1-a98343c26903}, !- Handle
  {dd3d4fcd-82ba-480e-bc52-5e54aa5c54f6}, !- Name
  {30f4b6f6-b8af-40d4-a5a2-326951ffc389}; !- HVAC Component

OS:Sizing:Zone,
  {517e6ab0-0d38-408b-9d7c-989af27459ff}, !- Handle
  {30f4b6f6-b8af-40d4-a5a2-326951ffc389}, !- Zone or ZoneList Name
  SupplyAirTemperature,                   !- Zone Cooling Design Supply Air Temperature Input Method
  14,                                     !- Zone Cooling Design Supply Air Temperature {C}
  11.11,                                  !- Zone Cooling Design Supply Air Temperature Difference {deltaC}
  SupplyAirTemperature,                   !- Zone Heating Design Supply Air Temperature Input Method
  40,                                     !- Zone Heating Design Supply Air Temperature {C}
  11.11,                                  !- Zone Heating Design Supply Air Temperature Difference {deltaC}
  0.0085,                                 !- Zone Cooling Design Supply Air Humidity Ratio {kg-H2O/kg-air}
  0.008,                                  !- Zone Heating Design Supply Air Humidity Ratio {kg-H2O/kg-air}
  ,                                       !- Zone Heating Sizing Factor
  ,                                       !- Zone Cooling Sizing Factor
  DesignDay,                              !- Cooling Design Air Flow Method
  ,                                       !- Cooling Design Air Flow Rate {m3/s}
  ,                                       !- Cooling Minimum Air Flow per Zone Floor Area {m3/s-m2}
  ,                                       !- Cooling Minimum Air Flow {m3/s}
  ,                                       !- Cooling Minimum Air Flow Fraction
  DesignDay,                              !- Heating Design Air Flow Method
  ,                                       !- Heating Design Air Flow Rate {m3/s}
  ,                                       !- Heating Maximum Air Flow per Zone Floor Area {m3/s-m2}
  ,                                       !- Heating Maximum Air Flow {m3/s}
  ,                                       !- Heating Maximum Air Flow Fraction
  ,                                       !- Design Zone Air Distribution Effectiveness in Cooling Mode
  ,                                       !- Design Zone Air Distribution Effectiveness in Heating Mode
  No,                                     !- Account for Dedicated Outdoor Air System
  NeutralSupplyAir,                       !- Dedicated Outdoor Air System Control Strategy
  autosize,                               !- Dedicated Outdoor Air Low Setpoint Temperature for Design {C}
  autosize;                               !- Dedicated Outdoor Air High Setpoint Temperature for Design {C}

OS:ZoneHVAC:EquipmentList,
  {f336cdd8-063d-4678-a5e9-d82e2e3b7a7a}, !- Handle
  Zone HVAC Equipment List 1,             !- Name
  {30f4b6f6-b8af-40d4-a5a2-326951ffc389}; !- Thermal Zone

OS:Space,
  {95ae9b73-03a7-4c55-a391-41987fcccb2e}, !- Handle
  living space,                           !- Name
  {cd89e381-bf66-4246-b4ae-4a1a7f62505a}, !- Space Type Name
  ,                                       !- Default Construction Set Name
  ,                                       !- Default Schedule Set Name
  ,                                       !- Direction of Relative North {deg}
  ,                                       !- X Origin {m}
  ,                                       !- Y Origin {m}
  ,                                       !- Z Origin {m}
  ,                                       !- Building Story Name
  {30f4b6f6-b8af-40d4-a5a2-326951ffc389}, !- Thermal Zone Name
  ,                                       !- Part of Total Floor Area
  ,                                       !- Design Specification Outdoor Air Object Name
  {9c5a116a-705e-454d-9b4e-76afa7ef6dec}; !- Building Unit Name

OS:Surface,
  {cf030d4e-c2ae-4594-be20-f82145d7a808}, !- Handle
  Surface 1,                              !- Name
  Floor,                                  !- Surface Type
  ,                                       !- Construction Name
  {95ae9b73-03a7-4c55-a391-41987fcccb2e}, !- Space Name
  Surface,                                !- Outside Boundary Condition
  {ca927e78-d0e7-4e72-95fc-11c437d35da7}, !- Outside Boundary Condition Object
  NoSun,                                  !- Sun Exposure
  NoWind,                                 !- Wind Exposure
  ,                                       !- View Factor to Ground
  ,                                       !- Number of Vertices
  0, -9.144, 0,                           !- X,Y,Z Vertex 1 {m}
  0, 0, 0,                                !- X,Y,Z Vertex 2 {m}
  4.572, 0, 0,                            !- X,Y,Z Vertex 3 {m}
  4.572, -9.144, 0;                       !- X,Y,Z Vertex 4 {m}

OS:Surface,
  {e8800cdd-1f02-4cc2-944e-f5ea6117eb0f}, !- Handle
  Surface 2,                              !- Name
  Wall,                                   !- Surface Type
  ,                                       !- Construction Name
  {95ae9b73-03a7-4c55-a391-41987fcccb2e}, !- Space Name
  Outdoors,                               !- Outside Boundary Condition
  ,                                       !- Outside Boundary Condition Object
  SunExposed,                             !- Sun Exposure
  WindExposed,                            !- Wind Exposure
  ,                                       !- View Factor to Ground
  ,                                       !- Number of Vertices
  0, 0, 2.4384,                           !- X,Y,Z Vertex 1 {m}
  0, 0, 0,                                !- X,Y,Z Vertex 2 {m}
  0, -9.144, 0,                           !- X,Y,Z Vertex 3 {m}
  0, -9.144, 2.4384;                      !- X,Y,Z Vertex 4 {m}

OS:Surface,
  {dae06406-1da8-4f77-8f75-b35e123eee6d}, !- Handle
  Surface 3,                              !- Name
  Wall,                                   !- Surface Type
  ,                                       !- Construction Name
  {95ae9b73-03a7-4c55-a391-41987fcccb2e}, !- Space Name
  Outdoors,                               !- Outside Boundary Condition
  ,                                       !- Outside Boundary Condition Object
  SunExposed,                             !- Sun Exposure
  WindExposed,                            !- Wind Exposure
  ,                                       !- View Factor to Ground
  ,                                       !- Number of Vertices
  4.572, 0, 2.4384,                       !- X,Y,Z Vertex 1 {m}
  4.572, 0, 0,                            !- X,Y,Z Vertex 2 {m}
  0, 0, 0,                                !- X,Y,Z Vertex 3 {m}
  0, 0, 2.4384;                           !- X,Y,Z Vertex 4 {m}

OS:Surface,
  {165579f7-5632-40e1-aa89-61eb3eafee71}, !- Handle
  Surface 4,                              !- Name
  Wall,                                   !- Surface Type
  ,                                       !- Construction Name
  {95ae9b73-03a7-4c55-a391-41987fcccb2e}, !- Space Name
  Surface,                                !- Outside Boundary Condition
  {ee0663f5-5027-4ad1-b5a5-1b899f6ce3b0}, !- Outside Boundary Condition Object
  NoSun,                                  !- Sun Exposure
  NoWind,                                 !- Wind Exposure
  ,                                       !- View Factor to Ground
  ,                                       !- Number of Vertices
  4.572, -9.144, 2.4384,                  !- X,Y,Z Vertex 1 {m}
  4.572, -9.144, 0,                       !- X,Y,Z Vertex 2 {m}
  4.572, 0, 0,                            !- X,Y,Z Vertex 3 {m}
  4.572, 0, 2.4384;                       !- X,Y,Z Vertex 4 {m}

OS:Surface,
  {3b1e9abf-9c47-4a8a-8853-812b139f21dd}, !- Handle
  Surface 5,                              !- Name
  Wall,                                   !- Surface Type
  ,                                       !- Construction Name
  {95ae9b73-03a7-4c55-a391-41987fcccb2e}, !- Space Name
  Outdoors,                               !- Outside Boundary Condition
  ,                                       !- Outside Boundary Condition Object
  SunExposed,                             !- Sun Exposure
  WindExposed,                            !- Wind Exposure
  ,                                       !- View Factor to Ground
  ,                                       !- Number of Vertices
  0, -9.144, 2.4384,                      !- X,Y,Z Vertex 1 {m}
  0, -9.144, 0,                           !- X,Y,Z Vertex 2 {m}
  4.572, -9.144, 0,                       !- X,Y,Z Vertex 3 {m}
  4.572, -9.144, 2.4384;                  !- X,Y,Z Vertex 4 {m}

OS:Surface,
  {df74c665-eb98-4908-8db6-875ebf16855d}, !- Handle
  Surface 6,                              !- Name
  RoofCeiling,                            !- Surface Type
  ,                                       !- Construction Name
  {95ae9b73-03a7-4c55-a391-41987fcccb2e}, !- Space Name
  Surface,                                !- Outside Boundary Condition
  {55346784-bebe-4fa6-9989-7ef99f04fd27}, !- Outside Boundary Condition Object
  NoSun,                                  !- Sun Exposure
  NoWind,                                 !- Wind Exposure
  ,                                       !- View Factor to Ground
  ,                                       !- Number of Vertices
  4.572, -9.144, 2.4384,                  !- X,Y,Z Vertex 1 {m}
  4.572, 0, 2.4384,                       !- X,Y,Z Vertex 2 {m}
  0, 0, 2.4384,                           !- X,Y,Z Vertex 3 {m}
  0, -9.144, 2.4384;                      !- X,Y,Z Vertex 4 {m}

OS:SpaceType,
  {cd89e381-bf66-4246-b4ae-4a1a7f62505a}, !- Handle
  Space Type 1,                           !- Name
  ,                                       !- Default Construction Set Name
  ,                                       !- Default Schedule Set Name
  ,                                       !- Group Rendering Name
  ,                                       !- Design Specification Outdoor Air Object Name
  ,                                       !- Standards Template
  ,                                       !- Standards Building Type
  living;                                 !- Standards Space Type

OS:Space,
  {3510b5b8-1e3a-44f1-a721-f30e5d3e2f59}, !- Handle
  living space|story 2,                   !- Name
  {cd89e381-bf66-4246-b4ae-4a1a7f62505a}, !- Space Type Name
  ,                                       !- Default Construction Set Name
  ,                                       !- Default Schedule Set Name
  -0,                                     !- Direction of Relative North {deg}
  0,                                      !- X Origin {m}
  0,                                      !- Y Origin {m}
  2.4384,                                 !- Z Origin {m}
  ,                                       !- Building Story Name
  {30f4b6f6-b8af-40d4-a5a2-326951ffc389}, !- Thermal Zone Name
  ,                                       !- Part of Total Floor Area
  ,                                       !- Design Specification Outdoor Air Object Name
  {9c5a116a-705e-454d-9b4e-76afa7ef6dec}; !- Building Unit Name

OS:Surface,
  {55346784-bebe-4fa6-9989-7ef99f04fd27}, !- Handle
  Surface 7,                              !- Name
  Floor,                                  !- Surface Type
  ,                                       !- Construction Name
  {3510b5b8-1e3a-44f1-a721-f30e5d3e2f59}, !- Space Name
  Surface,                                !- Outside Boundary Condition
  {df74c665-eb98-4908-8db6-875ebf16855d}, !- Outside Boundary Condition Object
  NoSun,                                  !- Sun Exposure
  NoWind,                                 !- Wind Exposure
  ,                                       !- View Factor to Ground
  ,                                       !- Number of Vertices
  0, -9.144, 0,                           !- X,Y,Z Vertex 1 {m}
  0, 0, 0,                                !- X,Y,Z Vertex 2 {m}
  4.572, 0, 0,                            !- X,Y,Z Vertex 3 {m}
  4.572, -9.144, 0;                       !- X,Y,Z Vertex 4 {m}

OS:Surface,
  {9610d281-d57e-4053-b5ec-f2b88470feac}, !- Handle
  Surface 8,                              !- Name
  Wall,                                   !- Surface Type
  ,                                       !- Construction Name
  {3510b5b8-1e3a-44f1-a721-f30e5d3e2f59}, !- Space Name
  Outdoors,                               !- Outside Boundary Condition
  ,                                       !- Outside Boundary Condition Object
  SunExposed,                             !- Sun Exposure
  WindExposed,                            !- Wind Exposure
  ,                                       !- View Factor to Ground
  ,                                       !- Number of Vertices
  4.572, 0, 2.4384,                       !- X,Y,Z Vertex 1 {m}
  4.572, 0, 0,                            !- X,Y,Z Vertex 2 {m}
  0, 0, 0,                                !- X,Y,Z Vertex 3 {m}
  0, 0, 2.4384;                           !- X,Y,Z Vertex 4 {m}

OS:Surface,
  {7446ecd9-a0f6-47fa-91b9-c393e79e1fab}, !- Handle
  Surface 9,                              !- Name
  RoofCeiling,                            !- Surface Type
  ,                                       !- Construction Name
  {3510b5b8-1e3a-44f1-a721-f30e5d3e2f59}, !- Space Name
  Surface,                                !- Outside Boundary Condition
  {c62507d0-5c0c-47ec-b6b2-bc8a926b18bf}, !- Outside Boundary Condition Object
  NoSun,                                  !- Sun Exposure
  NoWind,                                 !- Wind Exposure
  ,                                       !- View Factor to Ground
  ,                                       !- Number of Vertices
  4.572, -9.144, 2.4384,                  !- X,Y,Z Vertex 1 {m}
  4.572, 0, 2.4384,                       !- X,Y,Z Vertex 2 {m}
  0, 0, 2.4384,                           !- X,Y,Z Vertex 3 {m}
  0, -9.144, 2.4384;                      !- X,Y,Z Vertex 4 {m}

OS:Surface,
  {23a9f123-ad96-4272-95f6-f787a6f6d16f}, !- Handle
  Surface 10,                             !- Name
  Wall,                                   !- Surface Type
  ,                                       !- Construction Name
  {3510b5b8-1e3a-44f1-a721-f30e5d3e2f59}, !- Space Name
  Outdoors,                               !- Outside Boundary Condition
  ,                                       !- Outside Boundary Condition Object
  SunExposed,                             !- Sun Exposure
  WindExposed,                            !- Wind Exposure
  ,                                       !- View Factor to Ground
  ,                                       !- Number of Vertices
  0, -9.144, 2.4384,                      !- X,Y,Z Vertex 1 {m}
  0, -9.144, 0,                           !- X,Y,Z Vertex 2 {m}
  4.572, -9.144, 0,                       !- X,Y,Z Vertex 3 {m}
  4.572, -9.144, 2.4384;                  !- X,Y,Z Vertex 4 {m}

OS:Surface,
  {4638beee-dd58-414c-b993-113a9731c826}, !- Handle
  Surface 11,                             !- Name
  Wall,                                   !- Surface Type
  ,                                       !- Construction Name
  {3510b5b8-1e3a-44f1-a721-f30e5d3e2f59}, !- Space Name
  Outdoors,                               !- Outside Boundary Condition
  ,                                       !- Outside Boundary Condition Object
  SunExposed,                             !- Sun Exposure
  WindExposed,                            !- Wind Exposure
  ,                                       !- View Factor to Ground
  ,                                       !- Number of Vertices
  0, 0, 2.4384,                           !- X,Y,Z Vertex 1 {m}
  0, 0, 0,                                !- X,Y,Z Vertex 2 {m}
  0, -9.144, 0,                           !- X,Y,Z Vertex 3 {m}
  0, -9.144, 2.4384;                      !- X,Y,Z Vertex 4 {m}

OS:Surface,
  {02d35708-cb7d-4763-8a1d-1160bbe463cc}, !- Handle
  Surface 12,                             !- Name
  Wall,                                   !- Surface Type
  ,                                       !- Construction Name
  {3510b5b8-1e3a-44f1-a721-f30e5d3e2f59}, !- Space Name
  Surface,                                !- Outside Boundary Condition
  {2ecfa0d2-e626-43c9-b112-2ba9655dbb49}, !- Outside Boundary Condition Object
  NoSun,                                  !- Sun Exposure
  NoWind,                                 !- Wind Exposure
  ,                                       !- View Factor to Ground
  ,                                       !- Number of Vertices
  4.572, -9.144, 2.4384,                  !- X,Y,Z Vertex 1 {m}
  4.572, -9.144, 0,                       !- X,Y,Z Vertex 2 {m}
  4.572, 0, 0,                            !- X,Y,Z Vertex 3 {m}
  4.572, 0, 2.4384;                       !- X,Y,Z Vertex 4 {m}

OS:ThermalZone,
  {444da017-33e7-46c8-b815-e86d965f3a80}, !- Handle
  living zone|unit 2,                     !- Name
  ,                                       !- Multiplier
  ,                                       !- Ceiling Height {m}
  ,                                       !- Volume {m3}
  ,                                       !- Floor Area {m2}
  ,                                       !- Zone Inside Convection Algorithm
  ,                                       !- Zone Outside Convection Algorithm
  ,                                       !- Zone Conditioning Equipment List Name
  {dbe6819f-e017-4471-97ee-f0848344d408}, !- Zone Air Inlet Port List
  {782a0991-36c3-485b-9660-373320705512}, !- Zone Air Exhaust Port List
  {c56f6724-6832-4ec7-945d-bd126da8d200}, !- Zone Air Node Name
  {a5588152-ffb2-4e5b-a990-197f936bd9ac}, !- Zone Return Air Port List
  ,                                       !- Primary Daylighting Control Name
  ,                                       !- Fraction of Zone Controlled by Primary Daylighting Control
  ,                                       !- Secondary Daylighting Control Name
  ,                                       !- Fraction of Zone Controlled by Secondary Daylighting Control
  ,                                       !- Illuminance Map Name
  ,                                       !- Group Rendering Name
  ,                                       !- Thermostat Name
  No;                                     !- Use Ideal Air Loads

OS:Node,
  {6a697dd9-1cd6-4556-9c13-dc0a00eb4163}, !- Handle
  Node 2,                                 !- Name
  {c56f6724-6832-4ec7-945d-bd126da8d200}, !- Inlet Port
  ;                                       !- Outlet Port

OS:Connection,
  {c56f6724-6832-4ec7-945d-bd126da8d200}, !- Handle
  {16e9700a-1927-4386-8a83-65e6cf80f7ce}, !- Name
  {444da017-33e7-46c8-b815-e86d965f3a80}, !- Source Object
  11,                                     !- Outlet Port
  {6a697dd9-1cd6-4556-9c13-dc0a00eb4163}, !- Target Object
  2;                                      !- Inlet Port

OS:PortList,
  {dbe6819f-e017-4471-97ee-f0848344d408}, !- Handle
  {eca7f062-c30c-4344-94ea-d7d83481ba3a}, !- Name
  {444da017-33e7-46c8-b815-e86d965f3a80}; !- HVAC Component

OS:PortList,
  {782a0991-36c3-485b-9660-373320705512}, !- Handle
  {cfb37e41-52df-432f-8259-878931966793}, !- Name
  {444da017-33e7-46c8-b815-e86d965f3a80}; !- HVAC Component

OS:PortList,
  {a5588152-ffb2-4e5b-a990-197f936bd9ac}, !- Handle
  {0770b85f-6403-435d-b326-153a3bf8854a}, !- Name
  {444da017-33e7-46c8-b815-e86d965f3a80}; !- HVAC Component

OS:Sizing:Zone,
  {545b97ea-2e04-4952-a774-ce4af5951afc}, !- Handle
  {444da017-33e7-46c8-b815-e86d965f3a80}, !- Zone or ZoneList Name
  SupplyAirTemperature,                   !- Zone Cooling Design Supply Air Temperature Input Method
  14,                                     !- Zone Cooling Design Supply Air Temperature {C}
  11.11,                                  !- Zone Cooling Design Supply Air Temperature Difference {deltaC}
  SupplyAirTemperature,                   !- Zone Heating Design Supply Air Temperature Input Method
  40,                                     !- Zone Heating Design Supply Air Temperature {C}
  11.11,                                  !- Zone Heating Design Supply Air Temperature Difference {deltaC}
  0.0085,                                 !- Zone Cooling Design Supply Air Humidity Ratio {kg-H2O/kg-air}
  0.008,                                  !- Zone Heating Design Supply Air Humidity Ratio {kg-H2O/kg-air}
  ,                                       !- Zone Heating Sizing Factor
  ,                                       !- Zone Cooling Sizing Factor
  DesignDay,                              !- Cooling Design Air Flow Method
  ,                                       !- Cooling Design Air Flow Rate {m3/s}
  ,                                       !- Cooling Minimum Air Flow per Zone Floor Area {m3/s-m2}
  ,                                       !- Cooling Minimum Air Flow {m3/s}
  ,                                       !- Cooling Minimum Air Flow Fraction
  DesignDay,                              !- Heating Design Air Flow Method
  ,                                       !- Heating Design Air Flow Rate {m3/s}
  ,                                       !- Heating Maximum Air Flow per Zone Floor Area {m3/s-m2}
  ,                                       !- Heating Maximum Air Flow {m3/s}
  ,                                       !- Heating Maximum Air Flow Fraction
  ,                                       !- Design Zone Air Distribution Effectiveness in Cooling Mode
  ,                                       !- Design Zone Air Distribution Effectiveness in Heating Mode
  No,                                     !- Account for Dedicated Outdoor Air System
  NeutralSupplyAir,                       !- Dedicated Outdoor Air System Control Strategy
  autosize,                               !- Dedicated Outdoor Air Low Setpoint Temperature for Design {C}
  autosize;                               !- Dedicated Outdoor Air High Setpoint Temperature for Design {C}

OS:ZoneHVAC:EquipmentList,
  {c4d015d0-0229-4081-b669-27b59e85233e}, !- Handle
  Zone HVAC Equipment List 2,             !- Name
  {444da017-33e7-46c8-b815-e86d965f3a80}; !- Thermal Zone

OS:Space,
  {c87d6723-0d10-4098-919a-09bf7d22aa7e}, !- Handle
  living space|unit 2|story 1,            !- Name
  {cd89e381-bf66-4246-b4ae-4a1a7f62505a}, !- Space Type Name
  ,                                       !- Default Construction Set Name
  ,                                       !- Default Schedule Set Name
  -0,                                     !- Direction of Relative North {deg}
  0,                                      !- X Origin {m}
  0,                                      !- Y Origin {m}
  0,                                      !- Z Origin {m}
  ,                                       !- Building Story Name
  {444da017-33e7-46c8-b815-e86d965f3a80}, !- Thermal Zone Name
  ,                                       !- Part of Total Floor Area
  ,                                       !- Design Specification Outdoor Air Object Name
  {3d020a85-76ef-47d4-b6e3-a5a9c2200721}; !- Building Unit Name

OS:Surface,
  {236fc922-22d8-44e9-ab2d-3582d8bc34c0}, !- Handle
  Surface 18,                             !- Name
  Floor,                                  !- Surface Type
  ,                                       !- Construction Name
  {c87d6723-0d10-4098-919a-09bf7d22aa7e}, !- Space Name
  Surface,                                !- Outside Boundary Condition
  {a4fed169-1943-4265-9ca4-88b2a3853e79}, !- Outside Boundary Condition Object
  NoSun,                                  !- Sun Exposure
  NoWind,                                 !- Wind Exposure
  ,                                       !- View Factor to Ground
  ,                                       !- Number of Vertices
  4.572, -9.144, 0,                       !- X,Y,Z Vertex 1 {m}
  4.572, 0, 0,                            !- X,Y,Z Vertex 2 {m}
  9.144, 0, 0,                            !- X,Y,Z Vertex 3 {m}
  9.144, -9.144, 0;                       !- X,Y,Z Vertex 4 {m}

OS:Surface,
  {7fe7820e-0bb0-46bb-a52c-b295b9a9aed8}, !- Handle
  Surface 19,                             !- Name
  Wall,                                   !- Surface Type
  ,                                       !- Construction Name
  {c87d6723-0d10-4098-919a-09bf7d22aa7e}, !- Space Name
  Outdoors,                               !- Outside Boundary Condition
  ,                                       !- Outside Boundary Condition Object
  SunExposed,                             !- Sun Exposure
  WindExposed,                            !- Wind Exposure
  ,                                       !- View Factor to Ground
  ,                                       !- Number of Vertices
  9.144, 0, 2.4384,                       !- X,Y,Z Vertex 1 {m}
  9.144, 0, 0,                            !- X,Y,Z Vertex 2 {m}
  4.572, 0, 0,                            !- X,Y,Z Vertex 3 {m}
  4.572, 0, 2.4384;                       !- X,Y,Z Vertex 4 {m}

OS:Surface,
  {6241f588-9bfa-4522-bf9d-b83bab5e3103}, !- Handle
  Surface 20,                             !- Name
  RoofCeiling,                            !- Surface Type
  ,                                       !- Construction Name