!- NOTE: Auto-generated from /test/osw_files/SFA_4units_1story_SL_UA_3Beds_2Baths_Denver_ElectricBaseboard.osw

OS:Version,
  {3606bc2a-24b8-49bd-ae21-65aa09d03a64}, !- Handle
  2.9.0;                                  !- Version Identifier

OS:SimulationControl,
  {3d56fc9e-e6c6-4e8e-b9da-b58fc979093b}, !- Handle
  ,                                       !- Do Zone Sizing Calculation
  ,                                       !- Do System Sizing Calculation
  ,                                       !- Do Plant Sizing Calculation
  No;                                     !- Run Simulation for Sizing Periods

OS:Timestep,
  {da6e2aa0-5a39-48d8-bb87-53857d8b6216}, !- Handle
  6;                                      !- Number of Timesteps per Hour

OS:ShadowCalculation,
  {f38304cd-b299-4263-b8c5-99b249bba918}, !- Handle
  20,                                     !- Calculation Frequency
  200;                                    !- Maximum Figures in Shadow Overlap Calculations

OS:SurfaceConvectionAlgorithm:Outside,
  {0a7aa306-578a-483c-8024-962319730ee4}, !- Handle
  DOE-2;                                  !- Algorithm

OS:SurfaceConvectionAlgorithm:Inside,
  {54880f53-5f83-446b-9b67-b857bacb447d}, !- Handle
  TARP;                                   !- Algorithm

OS:ZoneCapacitanceMultiplier:ResearchSpecial,
  {ccaa055b-c4dd-4d2f-af12-94f9f122842b}, !- Handle
  ,                                       !- Temperature Capacity Multiplier
  15,                                     !- Humidity Capacity Multiplier
  ;                                       !- Carbon Dioxide Capacity Multiplier

OS:RunPeriod,
  {36c1b05c-71c8-4487-930c-9dd57e9ea161}, !- Handle
  Run Period 1,                           !- Name
  1,                                      !- Begin Month
  1,                                      !- Begin Day of Month
  12,                                     !- End Month
  31,                                     !- End Day of Month
  ,                                       !- Use Weather File Holidays and Special Days
  ,                                       !- Use Weather File Daylight Saving Period
  ,                                       !- Apply Weekend Holiday Rule
  ,                                       !- Use Weather File Rain Indicators
  ,                                       !- Use Weather File Snow Indicators
  ;                                       !- Number of Times Runperiod to be Repeated

OS:YearDescription,
  {59197ccb-21f6-44c6-b11b-7c36354e5559}, !- Handle
  2007,                                   !- Calendar Year
  ,                                       !- Day of Week for Start Day
  ;                                       !- Is Leap Year

OS:ThermalZone,
  {1009c60a-fff0-4878-8b19-0f1677eafc35}, !- Handle
  living zone,                            !- Name
  ,                                       !- Multiplier
  ,                                       !- Ceiling Height {m}
  ,                                       !- Volume {m3}
  ,                                       !- Floor Area {m2}
  ,                                       !- Zone Inside Convection Algorithm
  ,                                       !- Zone Outside Convection Algorithm
  ,                                       !- Zone Conditioning Equipment List Name
  {0aca7269-c154-48e7-b0d0-520d1a808f72}, !- Zone Air Inlet Port List
  {e443aa37-f524-474c-9efc-3b6a2114f208}, !- Zone Air Exhaust Port List
  {3374ae69-baa9-47f2-adf4-8d508148a186}, !- Zone Air Node Name
  {e8a0c095-983d-4c10-9138-094991b4b87a}, !- Zone Return Air Port List
  ,                                       !- Primary Daylighting Control Name
  ,                                       !- Fraction of Zone Controlled by Primary Daylighting Control
  ,                                       !- Secondary Daylighting Control Name
  ,                                       !- Fraction of Zone Controlled by Secondary Daylighting Control
  ,                                       !- Illuminance Map Name
  ,                                       !- Group Rendering Name
  {d0ffbbe0-1cad-4ce2-8903-6654f3939548}, !- Thermostat Name
  No;                                     !- Use Ideal Air Loads

OS:Node,
  {0322021c-ce95-4ef5-a393-c145e2f3bd9f}, !- Handle
  Node 1,                                 !- Name
  {3374ae69-baa9-47f2-adf4-8d508148a186}, !- Inlet Port
  ;                                       !- Outlet Port

OS:Connection,
  {3374ae69-baa9-47f2-adf4-8d508148a186}, !- Handle
  {4c28eb15-8b12-449b-916d-8d36b1d799f6}, !- Name
  {1009c60a-fff0-4878-8b19-0f1677eafc35}, !- Source Object
  11,                                     !- Outlet Port
  {0322021c-ce95-4ef5-a393-c145e2f3bd9f}, !- Target Object
  2;                                      !- Inlet Port

OS:PortList,
  {0aca7269-c154-48e7-b0d0-520d1a808f72}, !- Handle
  {c14522b2-df8f-4001-8b21-1c9b097e23d8}, !- Name
  {1009c60a-fff0-4878-8b19-0f1677eafc35}; !- HVAC Component

OS:PortList,
  {e443aa37-f524-474c-9efc-3b6a2114f208}, !- Handle
  {35d02cd7-1839-41c9-9596-e153f6cfd8e9}, !- Name
  {1009c60a-fff0-4878-8b19-0f1677eafc35}; !- HVAC Component

OS:PortList,
  {e8a0c095-983d-4c10-9138-094991b4b87a}, !- Handle
  {32188a4e-5d68-40e2-831d-dad04f17a81c}, !- Name
  {1009c60a-fff0-4878-8b19-0f1677eafc35}; !- HVAC Component

OS:Sizing:Zone,
  {5cb554e9-0f11-43a3-8bff-e30ae54adbb3}, !- Handle
  {1009c60a-fff0-4878-8b19-0f1677eafc35}, !- Zone or ZoneList Name
  SupplyAirTemperature,                   !- Zone Cooling Design Supply Air Temperature Input Method
  14,                                     !- Zone Cooling Design Supply Air Temperature {C}
  11.11,                                  !- Zone Cooling Design Supply Air Temperature Difference {deltaC}
  SupplyAirTemperature,                   !- Zone Heating Design Supply Air Temperature Input Method
  40,                                     !- Zone Heating Design Supply Air Temperature {C}
  11.11,                                  !- Zone Heating Design Supply Air Temperature Difference {deltaC}
  0.0085,                                 !- Zone Cooling Design Supply Air Humidity Ratio {kg-H2O/kg-air}
  0.008,                                  !- Zone Heating Design Supply Air Humidity Ratio {kg-H2O/kg-air}
  ,                                       !- Zone Heating Sizing Factor
  ,                                       !- Zone Cooling Sizing Factor
  DesignDay,                              !- Cooling Design Air Flow Method
  ,                                       !- Cooling Design Air Flow Rate {m3/s}
  ,                                       !- Cooling Minimum Air Flow per Zone Floor Area {m3/s-m2}
  ,                                       !- Cooling Minimum Air Flow {m3/s}
  ,                                       !- Cooling Minimum Air Flow Fraction
  DesignDay,                              !- Heating Design Air Flow Method
  ,                                       !- Heating Design Air Flow Rate {m3/s}
  ,                                       !- Heating Maximum Air Flow per Zone Floor Area {m3/s-m2}
  ,                                       !- Heating Maximum Air Flow {m3/s}
  ,                                       !- Heating Maximum Air Flow Fraction
  ,                                       !- Design Zone Air Distribution Effectiveness in Cooling Mode
  ,                                       !- Design Zone Air Distribution Effectiveness in Heating Mode
  No,                                     !- Account for Dedicated Outdoor Air System
  NeutralSupplyAir,                       !- Dedicated Outdoor Air System Control Strategy
  autosize,                               !- Dedicated Outdoor Air Low Setpoint Temperature for Design {C}
  autosize;                               !- Dedicated Outdoor Air High Setpoint Temperature for Design {C}

OS:ZoneHVAC:EquipmentList,
  {77627a02-8b36-4366-9991-621c4891d205}, !- Handle
  Zone HVAC Equipment List 1,             !- Name
  {1009c60a-fff0-4878-8b19-0f1677eafc35}, !- Thermal Zone
  SequentialLoad,                         !- Load Distribution Scheme
  {9cfb4660-b4ee-4340-b9aa-f4a9599f1abc}, !- Zone Equipment 1
  1,                                      !- Zone Equipment Cooling Sequence 1
  1,                                      !- Zone Equipment Heating or No-Load Sequence 1
  ,                                       !- Zone Equipment Sequential Cooling Fraction Schedule Name 1
  ;                                       !- Zone Equipment Sequential Heating Fraction Schedule Name 1

OS:Space,
  {f97f5f5f-40d4-4807-abd1-866cd22d53fe}, !- Handle
  living space,                           !- Name
  {38d5c5b6-b5d4-46c2-b506-6dc3dac8ca4f}, !- Space Type Name
  ,                                       !- Default Construction Set Name
  ,                                       !- Default Schedule Set Name
  ,                                       !- Direction of Relative North {deg}
  ,                                       !- X Origin {m}
  ,                                       !- Y Origin {m}
  ,                                       !- Z Origin {m}
  ,                                       !- Building Story Name
  {1009c60a-fff0-4878-8b19-0f1677eafc35}, !- Thermal Zone Name
  ,                                       !- Part of Total Floor Area
  ,                                       !- Design Specification Outdoor Air Object Name
  {63f70ba4-6d66-46ae-818a-66d0ffc33e6c}; !- Building Unit Name

OS:Surface,
  {896c3ff9-15e5-4864-b7bd-545b86fdaae3}, !- Handle
  Surface 1,                              !- Name
  Floor,                                  !- Surface Type
  ,                                       !- Construction Name
  {f97f5f5f-40d4-4807-abd1-866cd22d53fe}, !- Space Name
  Foundation,                             !- Outside Boundary Condition
  ,                                       !- Outside Boundary Condition Object
  NoSun,                                  !- Sun Exposure
  NoWind,                                 !- Wind Exposure
  ,                                       !- View Factor to Ground
  ,                                       !- Number of Vertices
  0, -12.9315688143396, 0,                !- X,Y,Z Vertex 1 {m}
  0, 0, 0,                                !- X,Y,Z Vertex 2 {m}
  6.46578440716979, 0, 0,                 !- X,Y,Z Vertex 3 {m}
  6.46578440716979, -12.9315688143396, 0; !- X,Y,Z Vertex 4 {m}

OS:Surface,
  {0bb7822f-606b-467d-879a-6bfeeac199ac}, !- Handle
  Surface 2,                              !- Name
  Wall,                                   !- Surface Type
  ,                                       !- Construction Name
  {f97f5f5f-40d4-4807-abd1-866cd22d53fe}, !- Space Name
  Outdoors,                               !- Outside Boundary Condition
  ,                                       !- Outside Boundary Condition Object
  SunExposed,                             !- Sun Exposure
  WindExposed,                            !- Wind Exposure
  ,                                       !- View Factor to Ground
  ,                                       !- Number of Vertices
  0, 0, 2.4384,                           !- X,Y,Z Vertex 1 {m}
  0, 0, 0,                                !- X,Y,Z Vertex 2 {m}
  0, -12.9315688143396, 0,                !- X,Y,Z Vertex 3 {m}
  0, -12.9315688143396, 2.4384;           !- X,Y,Z Vertex 4 {m}

OS:Surface,
  {bdd035a7-7c1b-4e55-b7cf-e6c6af60576e}, !- Handle
  Surface 3,                              !- Name
  Wall,                                   !- Surface Type
  ,                                       !- Construction Name
  {f97f5f5f-40d4-4807-abd1-866cd22d53fe}, !- Space Name
  Outdoors,                               !- Outside Boundary Condition
  ,                                       !- Outside Boundary Condition Object
  SunExposed,                             !- Sun Exposure
  WindExposed,                            !- Wind Exposure
  ,                                       !- View Factor to Ground
  ,                                       !- Number of Vertices
  6.46578440716979, 0, 2.4384,            !- X,Y,Z Vertex 1 {m}
  6.46578440716979, 0, 0,                 !- X,Y,Z Vertex 2 {m}
  0, 0, 0,                                !- X,Y,Z Vertex 3 {m}
  0, 0, 2.4384;                           !- X,Y,Z Vertex 4 {m}

OS:Surface,
  {f28bdf33-370d-47fd-badf-c451d5b16015}, !- Handle
  Surface 4,                              !- Name
  Wall,                                   !- Surface Type
  ,                                       !- Construction Name
  {f97f5f5f-40d4-4807-abd1-866cd22d53fe}, !- Space Name
  Surface,                                !- Outside Boundary Condition
  {70e59078-ee79-446d-a926-7a61561db615}, !- Outside Boundary Condition Object
  NoSun,                                  !- Sun Exposure
  NoWind,                                 !- Wind Exposure
  ,                                       !- View Factor to Ground
  ,                                       !- Number of Vertices
  6.46578440716979, -12.9315688143396, 2.4384, !- X,Y,Z Vertex 1 {m}
  6.46578440716979, -12.9315688143396, 0, !- X,Y,Z Vertex 2 {m}
  6.46578440716979, 0, 0,                 !- X,Y,Z Vertex 3 {m}
  6.46578440716979, 0, 2.4384;            !- X,Y,Z Vertex 4 {m}

OS:Surface,
  {64193c7c-b9f6-454e-8d04-b0917b3116d1}, !- Handle
  Surface 5,                              !- Name
  Wall,                                   !- Surface Type
  ,                                       !- Construction Name
  {f97f5f5f-40d4-4807-abd1-866cd22d53fe}, !- Space Name
  Outdoors,                               !- Outside Boundary Condition
  ,                                       !- Outside Boundary Condition Object
  SunExposed,                             !- Sun Exposure
  WindExposed,                            !- Wind Exposure
  ,                                       !- View Factor to Ground
  ,                                       !- Number of Vertices
  0, -12.9315688143396, 2.4384,           !- X,Y,Z Vertex 1 {m}
  0, -12.9315688143396, 0,                !- X,Y,Z Vertex 2 {m}
  6.46578440716979, -12.9315688143396, 0, !- X,Y,Z Vertex 3 {m}
  6.46578440716979, -12.9315688143396, 2.4384; !- X,Y,Z Vertex 4 {m}

OS:Surface,
  {b6018460-e04d-4cbb-9bdd-7d5e063ebb23}, !- Handle
  Surface 6,                              !- Name
  RoofCeiling,                            !- Surface Type
  ,                                       !- Construction Name
  {f97f5f5f-40d4-4807-abd1-866cd22d53fe}, !- Space Name
  Surface,                                !- Outside Boundary Condition
  {e36cccf5-dc46-4b34-b78f-f53aa1d0ab00}, !- Outside Boundary Condition Object
  NoSun,                                  !- Sun Exposure
  NoWind,                                 !- Wind Exposure
  ,                                       !- View Factor to Ground
  ,                                       !- Number of Vertices
  6.46578440716979, -12.9315688143396, 2.4384, !- X,Y,Z Vertex 1 {m}
  6.46578440716979, 0, 2.4384,            !- X,Y,Z Vertex 2 {m}
  0, 0, 2.4384,                           !- X,Y,Z Vertex 3 {m}
  0, -12.9315688143396, 2.4384;           !- X,Y,Z Vertex 4 {m}

OS:SpaceType,
  {38d5c5b6-b5d4-46c2-b506-6dc3dac8ca4f}, !- Handle
  Space Type 1,                           !- Name
  ,                                       !- Default Construction Set Name
  ,                                       !- Default Schedule Set Name
  ,                                       !- Group Rendering Name
  ,                                       !- Design Specification Outdoor Air Object Name
  ,                                       !- Standards Template
  ,                                       !- Standards Building Type
  living;                                 !- Standards Space Type

OS:ThermalZone,
  {632fff6b-6ae9-4891-98d9-0a8670fff3d6}, !- Handle
  living zone|unit 2,                     !- Name
  ,                                       !- Multiplier
  ,                                       !- Ceiling Height {m}
  ,                                       !- Volume {m3}
  ,                                       !- Floor Area {m2}
  ,                                       !- Zone Inside Convection Algorithm
  ,                                       !- Zone Outside Convection Algorithm
  ,                                       !- Zone Conditioning Equipment List Name
  {fee936af-19b1-45cc-bbf0-248add26172d}, !- Zone Air Inlet Port List
  {e89e0653-73d4-4747-a642-04425878ca77}, !- Zone Air Exhaust Port List
  {f8548339-8116-4a26-820c-14efff3ff464}, !- Zone Air Node Name
  {e2783eb6-eb1c-4d98-962f-937ac70649e1}, !- Zone Return Air Port List
  ,                                       !- Primary Daylighting Control Name
  ,                                       !- Fraction of Zone Controlled by Primary Daylighting Control
  ,                                       !- Secondary Daylighting Control Name
  ,                                       !- Fraction of Zone Controlled by Secondary Daylighting Control
  ,                                       !- Illuminance Map Name
  ,                                       !- Group Rendering Name
  {e521f69c-d08d-451f-a7db-7e6dfdef455d}, !- Thermostat Name
  No;                                     !- Use Ideal Air Loads

OS:Node,
  {9a391ba4-b352-4553-92c0-0711f5381645}, !- Handle
  Node 2,                                 !- Name
  {f8548339-8116-4a26-820c-14efff3ff464}, !- Inlet Port
  ;                                       !- Outlet Port

OS:Connection,
  {f8548339-8116-4a26-820c-14efff3ff464}, !- Handle
  {0ee7f1e8-d6f0-4c79-859d-64569f260699}, !- Name
  {632fff6b-6ae9-4891-98d9-0a8670fff3d6}, !- Source Object
  11,                                     !- Outlet Port
  {9a391ba4-b352-4553-92c0-0711f5381645}, !- Target Object
  2;                                      !- Inlet Port

OS:PortList,
  {fee936af-19b1-45cc-bbf0-248add26172d}, !- Handle
  {be1b55f5-add7-4dbd-836b-5232f0a242c2}, !- Name
  {632fff6b-6ae9-4891-98d9-0a8670fff3d6}; !- HVAC Component

OS:PortList,
  {e89e0653-73d4-4747-a642-04425878ca77}, !- Handle
  {1686a675-5a3f-478a-82fe-a7deb5c97a89}, !- Name
  {632fff6b-6ae9-4891-98d9-0a8670fff3d6}; !- HVAC Component

OS:PortList,
  {e2783eb6-eb1c-4d98-962f-937ac70649e1}, !- Handle
  {67becf97-951d-4b38-a5a6-fd0d9b8cab5b}, !- Name
  {632fff6b-6ae9-4891-98d9-0a8670fff3d6}; !- HVAC Component

OS:Sizing:Zone,
  {a7e44c41-a42b-4ce2-ab57-f86e609e727c}, !- Handle
  {632fff6b-6ae9-4891-98d9-0a8670fff3d6}, !- Zone or ZoneList Name
  SupplyAirTemperature,                   !- Zone Cooling Design Supply Air Temperature Input Method
  14,                                     !- Zone Cooling Design Supply Air Temperature {C}
  11.11,                                  !- Zone Cooling Design Supply Air Temperature Difference {deltaC}
  SupplyAirTemperature,                   !- Zone Heating Design Supply Air Temperature Input Method
  40,                                     !- Zone Heating Design Supply Air Temperature {C}
  11.11,                                  !- Zone Heating Design Supply Air Temperature Difference {deltaC}
  0.0085,                                 !- Zone Cooling Design Supply Air Humidity Ratio {kg-H2O/kg-air}
  0.008,                                  !- Zone Heating Design Supply Air Humidity Ratio {kg-H2O/kg-air}
  ,                                       !- Zone Heating Sizing Factor
  ,                                       !- Zone Cooling Sizing Factor
  DesignDay,                              !- Cooling Design Air Flow Method
  ,                                       !- Cooling Design Air Flow Rate {m3/s}
  ,                                       !- Cooling Minimum Air Flow per Zone Floor Area {m3/s-m2}
  ,                                       !- Cooling Minimum Air Flow {m3/s}
  ,                                       !- Cooling Minimum Air Flow Fraction
  DesignDay,                              !- Heating Design Air Flow Method
  ,                                       !- Heating Design Air Flow Rate {m3/s}
  ,                                       !- Heating Maximum Air Flow per Zone Floor Area {m3/s-m2}
  ,                                       !- Heating Maximum Air Flow {m3/s}
  ,                                       !- Heating Maximum Air Flow Fraction
  ,                                       !- Design Zone Air Distribution Effectiveness in Cooling Mode
  ,                                       !- Design Zone Air Distribution Effectiveness in Heating Mode
  No,                                     !- Account for Dedicated Outdoor Air System
  NeutralSupplyAir,                       !- Dedicated Outdoor Air System Control Strategy
  autosize,                               !- Dedicated Outdoor Air Low Setpoint Temperature for Design {C}
  autosize;                               !- Dedicated Outdoor Air High Setpoint Temperature for Design {C}

OS:ZoneHVAC:EquipmentList,
  {3845cfff-df47-4818-a7e6-cb05e06337ec}, !- Handle
  Zone HVAC Equipment List 2,             !- Name
  {632fff6b-6ae9-4891-98d9-0a8670fff3d6}, !- Thermal Zone
  SequentialLoad,                         !- Load Distribution Scheme
  {16a8c0a1-8399-47b2-8cfa-c781bcf9799f}, !- Zone Equipment 1
  1,                                      !- Zone Equipment Cooling Sequence 1
  1,                                      !- Zone Equipment Heating or No-Load Sequence 1
  ,                                       !- Zone Equipment Sequential Cooling Fraction Schedule Name 1
  ;                                       !- Zone Equipment Sequential Heating Fraction Schedule Name 1

OS:Space,
  {8f0de824-cd93-4c15-b398-a7590a4fc628}, !- Handle
  living space|unit 2|story 1,            !- Name
  {38d5c5b6-b5d4-46c2-b506-6dc3dac8ca4f}, !- Space Type Name
  ,                                       !- Default Construction Set Name
  ,                                       !- Default Schedule Set Name
  -0,                                     !- Direction of Relative North {deg}
  0,                                      !- X Origin {m}
  0,                                      !- Y Origin {m}
  0,                                      !- Z Origin {m}
  ,                                       !- Building Story Name
  {632fff6b-6ae9-4891-98d9-0a8670fff3d6}, !- Thermal Zone Name
  ,                                       !- Part of Total Floor Area
  ,                                       !- Design Specification Outdoor Air Object Name
  {a80f1a14-d479-4a39-a75b-0a1d60b3f62c}; !- Building Unit Name

OS:Surface,
  {97c69680-76a1-42de-a3ac-c8aa85311549}, !- Handle
  Surface 12,                             !- Name
  Floor,                                  !- Surface Type
  ,                                       !- Construction Name
  {8f0de824-cd93-4c15-b398-a7590a4fc628}, !- Space Name
  Foundation,                             !- Outside Boundary Condition
  ,                                       !- Outside Boundary Condition Object
  NoSun,                                  !- Sun Exposure
  NoWind,                                 !- Wind Exposure
  ,                                       !- View Factor to Ground
  ,                                       !- Number of Vertices
  6.46578440716979, -12.9315688143396, 0, !- X,Y,Z Vertex 1 {m}
  6.46578440716979, 0, 0,                 !- X,Y,Z Vertex 2 {m}
  12.9315688143396, 0, 0,                 !- X,Y,Z Vertex 3 {m}
  12.9315688143396, -12.9315688143396, 0; !- X,Y,Z Vertex 4 {m}

OS:Surface,
  {9e685db8-9aba-40ae-8a51-4abe0693460f}, !- Handle
  Surface 13,                             !- Name
  RoofCeiling,                            !- Surface Type
  ,                                       !- Construction Name
  {8f0de824-cd93-4c15-b398-a7590a4fc628}, !- Space Name
  Surface,                                !- Outside Boundary Condition
  {d9d04960-ba81-45d2-9477-c06aa3de9575}, !- Outside Boundary Condition Object
  NoSun,                                  !- Sun Exposure
  NoWind,                                 !- Wind Exposure
  ,                                       !- View Factor to Ground
  ,                                       !- Number of Vertices
  12.9315688143396, -12.9315688143396, 2.4384, !- X,Y,Z Vertex 1 {m}
  12.9315688143396, 0, 2.4384,            !- X,Y,Z Vertex 2 {m}
  6.46578440716979, 0, 2.4384,            !- X,Y,Z Vertex 3 {m}
  6.46578440716979, -12.9315688143396, 2.4384; !- X,Y,Z Vertex 4 {m}

OS:Surface,
  {23b2dca2-a792-467a-b02e-4ed4a9928cb9}, !- Handle
  Surface 14,                             !- Name
  Wall,                                   !- Surface Type
  ,                                       !- Construction Name
  {8f0de824-cd93-4c15-b398-a7590a4fc628}, !- Space Name
  Outdoors,                               !- Outside Boundary Condition
  ,                                       !- Outside Boundary Condition Object
  SunExposed,                             !- Sun Exposure
  WindExposed,                            !- Wind Exposure
  ,                                       !- View Factor to Ground
  ,                                       !- Number of Vertices
  12.9315688143396, 0, 2.4384,            !- X,Y,Z Vertex 1 {m}
  12.9315688143396, 0, 0,                 !- X,Y,Z Vertex 2 {m}
  6.46578440716979, 0, 0,                 !- X,Y,Z Vertex 3 {m}
  6.46578440716979, 0, 2.4384;            !- X,Y,Z Vertex 4 {m}

OS:Surface,
  {70e59078-ee79-446d-a926-7a61561db615}, !- Handle
  Surface 15,                             !- Name
  Wall,                                   !- Surface Type
  ,                                       !- Construction Name
  {8f0de824-cd93-4c15-b398-a7590a4fc628}, !- Space Name
  Surface,                                !- Outside Boundary Condition
  {f28bdf33-370d-47fd-badf-c451d5b16015}, !- Outside Boundary Condition Object
  NoSun,                                  !- Sun Exposure
  NoWind,                                 !- Wind Exposure
  ,                                       !- View Factor to Ground
  ,                                       !- Number of Vertices
  6.46578440716979, 0, 2.4384,            !- X,Y,Z Vertex 1 {m}
  6.46578440716979, 0, 0,                 !- X,Y,Z Vertex 2 {m}
  6.46578440716979, -12.9315688143396, 0, !- X,Y,Z Vertex 3 {m}
  6.46578440716979, -12.9315688143396, 2.4384; !- X,Y,Z Vertex 4 {m}

OS:Surface,
  {7bbc7fb7-79a0-4b87-b056-73897e6a7606}, !- Handle
  Surface 16,                             !- Name
  Wall,                                   !- Surface Type
  ,                                       !- Construction Name
  {8f0de824-cd93-4c15-b398-a7590a4fc628}, !- Space Name
  Outdoors,                               !- Outside Boundary Condition
  ,                                       !- Outside Boundary Condition Object
  SunExposed,                             !- Sun Exposure
  WindExposed,                            !- Wind Exposure
  ,                                       !- View Factor to Ground
  ,                                       !- Number of Vertices
  6.46578440716979, -12.9315688143396, 2.4384, !- X,Y,Z Vertex 1 {m}
  6.46578440716979, -12.9315688143396, 0, !- X,Y,Z Vertex 2 {m}
  12.9315688143396, -12.9315688143396, 0, !- X,Y,Z Vertex 3 {m}
  12.9315688143396, -12.9315688143396, 2.4384; !- X,Y,Z Vertex 4 {m}

OS:Surface,
  {8f61aa30-7a4b-415c-bc3e-6aad11f4df31}, !- Handle
  Surface 17,                             !- Name
  Wall,                                   !- Surface Type
  ,                                       !- Construction Name
  {8f0de824-cd93-4c15-b398-a7590a4fc628}, !- Space Name
  Surface,                                !- Outside Boundary Condition
  {4794f2fa-5e22-49f0-a49f-d6bf1f697a86}, !- Outside Boundary Condition Object
  NoSun,                                  !- Sun Exposure
  NoWind,                                 !- Wind Exposure
  ,                                       !- View Factor to Ground
  ,                                       !- Number of Vertices
  12.9315688143396, -12.9315688143396, 2.4384, !- X,Y,Z Vertex 1 {m}
  12.9315688143396, -12.9315688143396, 0, !- X,Y,Z Vertex 2 {m}
  12.9315688143396, 0, 0,                 !- X,Y,Z Vertex 3 {m}
  12.9315688143396, 0, 2.4384;            !- X,Y,Z Vertex 4 {m}

OS:ThermalZone,
  {64d4e561-251c-4f11-9bf9-fbdbdc75f5b3}, !- Handle
  living zone|unit 3,                     !- Name
  ,                                       !- Multiplier
  ,                                       !- Ceiling Height {m}
  ,                                       !- Volume {m3}
  ,                                       !- Floor Area {m2}
  ,                                       !- Zone Inside Convection Algorithm
  ,                                       !- Zone Outside Convection Algorithm
  ,                                       !- Zone Conditioning Equipment List Name
  {36cf3053-69e2-492b-a4fd-65fefc1ae321}, !- Zone Air Inlet Port List
  {5ac46efe-06ae-4cae-b3cb-09812d93cbea}, !- Zone Air Exhaust Port List
  {03d6e859-2962-45f2-bd34-85bd6876b878}, !- Zone Air Node Name
  {4981d7bc-c833-4495-b9f7-a76d1e1955ef}, !- Zone Return Air Port List
  ,                                       !- Primary Daylighting Control Name
  ,                                       !- Fraction of Zone Controlled by Primary Daylighting Control
  ,                                       !- Secondary Daylighting Control Name
  ,                                       !- Fraction of Zone Controlled by Secondary Daylighting Control
  ,                                       !- Illuminance Map Name
  ,                                       !- Group Rendering Name
  {c0c5233e-363b-46d7-ba0f-19ec7e98e8ae}, !- Thermostat Name
  No;                                     !- Use Ideal Air Loads

OS:Node,
  {44a1ed75-2ee6-43ce-962f-c5060b55db84}, !- Handle
  Node 3,                                 !- Name
  {03d6e859-2962-45f2-bd34-85bd6876b878}, !- Inlet Port
  ;                                       !- Outlet Port

OS:Connection,