!- NOTE: Auto-generated from /test/osw_files/SFA_2story_FB_FuelBoiler_RoomAC_FuelTankWH.osw

OS:Version,
  {b9caa977-461c-4ccc-be0e-eec2ddb1a4d8}, !- Handle
  3.3.0;                                  !- Version Identifier

OS:SimulationControl,
  {9913b889-daa4-4fdd-b52e-f7b6d91ad9b0}, !- Handle
  ,                                       !- Do Zone Sizing Calculation
  ,                                       !- Do System Sizing Calculation
  ,                                       !- Do Plant Sizing Calculation
  No;                                     !- Run Simulation for Sizing Periods

OS:Timestep,
  {bcb923e9-4787-4e0a-854b-1245430d8347}, !- Handle
  6;                                      !- Number of Timesteps per Hour

OS:ShadowCalculation,
  {d9a3e4cb-7655-4047-8301-125ea92ce64d}, !- Handle
  PolygonClipping,                        !- Shading Calculation Method
  ,                                       !- Shading Calculation Update Frequency Method
  20,                                     !- Shading Calculation Update Frequency
  200,                                    !- Maximum Figures in Shadow Overlap Calculations
  ,                                       !- Polygon Clipping Algorithm
  512,                                    !- Pixel Counting Resolution
  DetailedSkyDiffuseModeling,             !- Sky Diffuse Modeling Algorithm
  No,                                     !- Output External Shading Calculation Results
  No,                                     !- Disable Self-Shading Within Shading Zone Groups
  No;                                     !- Disable Self-Shading From Shading Zone Groups to Other Zones

OS:SurfaceConvectionAlgorithm:Outside,
  {e648883c-8653-4348-b502-aedf0cc2cf5b}, !- Handle
  DOE-2;                                  !- Algorithm

OS:SurfaceConvectionAlgorithm:Inside,
  {f7ff9405-2889-4130-9d52-5a7545bda5db}, !- Handle
  TARP;                                   !- Algorithm

OS:ZoneCapacitanceMultiplier:ResearchSpecial,
  {3b322799-8ec2-4610-8115-ae90d74e7e52}, !- Handle
  ,                                       !- Temperature Capacity Multiplier
  15,                                     !- Humidity Capacity Multiplier
  ;                                       !- Carbon Dioxide Capacity Multiplier

OS:RunPeriod,
  {fe550d23-2a26-4262-a535-34ddc072bfde}, !- Handle
  Run Period 1,                           !- Name
  1,                                      !- Begin Month
  1,                                      !- Begin Day of Month
  12,                                     !- End Month
  31,                                     !- End Day of Month
  ,                                       !- Use Weather File Holidays and Special Days
  ,                                       !- Use Weather File Daylight Saving Period
  ,                                       !- Apply Weekend Holiday Rule
  ,                                       !- Use Weather File Rain Indicators
  ,                                       !- Use Weather File Snow Indicators
  ;                                       !- Number of Times Runperiod to be Repeated

OS:YearDescription,
  {8ce0f5b9-ee01-49e4-bf85-d01ff946752d}, !- Handle
  2007,                                   !- Calendar Year
  ,                                       !- Day of Week for Start Day
  ;                                       !- Is Leap Year

OS:WeatherFile,
  {259017f5-ce4f-4444-a714-302bc119a38d}, !- Handle
  Denver Intl Ap,                         !- City
  CO,                                     !- State Province Region
  USA,                                    !- Country
  TMY3,                                   !- Data Source
  725650,                                 !- WMO Number
  39.83,                                  !- Latitude {deg}
  -104.65,                                !- Longitude {deg}
  -7,                                     !- Time Zone {hr}
  1650,                                   !- Elevation {m}
  C:/OpenStudio/resstock/resources/measures/HPXMLtoOpenStudio/weather/USA_CO_Denver.Intl.AP.725650_TMY3.epw, !- Url
  E23378AA,                               !- Checksum
  ,                                       !- Start Date Actual Year
  Sunday;                                 !- Start Day of Week

OS:AdditionalProperties,
  {50c7602e-b50b-40f3-9311-bab3b5e76ac2}, !- Handle
  {259017f5-ce4f-4444-a714-302bc119a38d}, !- Object Name
  EPWHeaderCity,                          !- Feature Name 1
  String,                                 !- Feature Data Type 1
  Denver Intl Ap,                         !- Feature Value 1
  EPWHeaderState,                         !- Feature Name 2
  String,                                 !- Feature Data Type 2
  CO,                                     !- Feature Value 2
  EPWHeaderCountry,                       !- Feature Name 3
  String,                                 !- Feature Data Type 3
  USA,                                    !- Feature Value 3
  EPWHeaderDataSource,                    !- Feature Name 4
  String,                                 !- Feature Data Type 4
  TMY3,                                   !- Feature Value 4
  EPWHeaderStation,                       !- Feature Name 5
  String,                                 !- Feature Data Type 5
  725650,                                 !- Feature Value 5
  EPWHeaderLatitude,                      !- Feature Name 6
  Double,                                 !- Feature Data Type 6
  39.829999999999998,                     !- Feature Value 6
  EPWHeaderLongitude,                     !- Feature Name 7
  Double,                                 !- Feature Data Type 7
  -104.65000000000001,                    !- Feature Value 7
  EPWHeaderTimezone,                      !- Feature Name 8
  Double,                                 !- Feature Data Type 8
  -7,                                     !- Feature Value 8
  EPWHeaderAltitude,                      !- Feature Name 9
  Double,                                 !- Feature Data Type 9
  5413.3858267716532,                     !- Feature Value 9
  EPWHeaderLocalPressure,                 !- Feature Name 10
  Double,                                 !- Feature Data Type 10
  0.81937567683596546,                    !- Feature Value 10
  EPWHeaderRecordsPerHour,                !- Feature Name 11
  Double,                                 !- Feature Data Type 11
  0,                                      !- Feature Value 11
  EPWDataAnnualAvgDrybulb,                !- Feature Name 12
  Double,                                 !- Feature Data Type 12
  51.575616438356228,                     !- Feature Value 12
  EPWDataAnnualMinDrybulb,                !- Feature Name 13
  Double,                                 !- Feature Data Type 13
  -2.9200000000000017,                    !- Feature Value 13
  EPWDataAnnualMaxDrybulb,                !- Feature Name 14
  Double,                                 !- Feature Data Type 14
  104,                                    !- Feature Value 14
  EPWDataCDD50F,                          !- Feature Name 15
  Double,                                 !- Feature Data Type 15
  3072.2925000000005,                     !- Feature Value 15
  EPWDataCDD65F,                          !- Feature Name 16
  Double,                                 !- Feature Data Type 16
  883.62000000000035,                     !- Feature Value 16
  EPWDataHDD50F,                          !- Feature Name 17
  Double,                                 !- Feature Data Type 17
  2497.1925000000001,                     !- Feature Value 17
  EPWDataHDD65F,                          !- Feature Name 18
  Double,                                 !- Feature Data Type 18
  5783.5200000000013,                     !- Feature Value 18
  EPWDataAnnualAvgWindspeed,              !- Feature Name 19
  Double,                                 !- Feature Data Type 19
  3.9165296803649667,                     !- Feature Value 19
  EPWDataMonthlyAvgDrybulbs,              !- Feature Name 20
  String,                                 !- Feature Data Type 20
  33.4191935483871&#4431.90142857142857&#4443.02620967741937&#4442.48624999999999&#4459.877741935483854&#4473.57574999999997&#4472.07975806451608&#4472.70008064516134&#4466.49200000000006&#4450.079112903225806&#4437.218250000000005&#4434.582177419354835, !- Feature Value 20
  EPWDataGroundMonthlyTemps,              !- Feature Name 21
  String,                                 !- Feature Data Type 21
  44.08306285945173&#4440.89570904991865&#4440.64045432632048&#4442.153016571250646&#4448.225111118704206&#4454.268919273837525&#4459.508577937551024&#4462.82777283423508&#4463.10975667174995&#4460.41014950381947&#4455.304105212311526&#4449.445696474514364, !- Feature Value 21
  EPWDataWSF,                             !- Feature Name 22
  Double,                                 !- Feature Data Type 22
  0.58999999999999997,                    !- Feature Value 22
  EPWDataMonthlyAvgDailyHighDrybulbs,     !- Feature Name 23
  String,                                 !- Feature Data Type 23
  47.41032258064516&#4446.58642857142857&#4455.15032258064517&#4453.708&#4472.80193548387098&#4488.67600000000002&#4486.1858064516129&#4485.87225806451613&#4482.082&#4463.18064516129033&#4448.73400000000001&#4448.87935483870968, !- Feature Value 23
  EPWDataMonthlyAvgDailyLowDrybulbs,      !- Feature Name 24
  String,                                 !- Feature Data Type 24
  19.347741935483874&#4419.856428571428573&#4430.316129032258065&#4431.112&#4447.41612903225806&#4457.901999999999994&#4459.063870967741934&#4460.956774193548384&#4452.352000000000004&#4438.41612903225806&#4427.002000000000002&#4423.02903225806451, !- Feature Value 24
  EPWDesignHeatingDrybulb,                !- Feature Name 25
  Double,                                 !- Feature Data Type 25
  12.02,                                  !- Feature Value 25
  EPWDesignHeatingWindspeed,              !- Feature Name 26
  Double,                                 !- Feature Data Type 26
  2.8062500000000004,                     !- Feature Value 26
  EPWDesignCoolingDrybulb,                !- Feature Name 27
  Double,                                 !- Feature Data Type 27
  91.939999999999998,                     !- Feature Value 27
  EPWDesignCoolingWetbulb,                !- Feature Name 28
  Double,                                 !- Feature Data Type 28
  59.95131430195849,                      !- Feature Value 28
  EPWDesignCoolingHumidityRatio,          !- Feature Name 29
  Double,                                 !- Feature Data Type 29
  0.0059161086834698092,                  !- Feature Value 29
  EPWDesignCoolingWindspeed,              !- Feature Name 30
  Double,                                 !- Feature Data Type 30
  3.7999999999999989,                     !- Feature Value 30
  EPWDesignDailyTemperatureRange,         !- Feature Name 31
  Double,                                 !- Feature Data Type 31
  24.915483870967748,                     !- Feature Value 31
  EPWDesignDehumidDrybulb,                !- Feature Name 32
  Double,                                 !- Feature Data Type 32
  67.996785714285721,                     !- Feature Value 32
  EPWDesignDehumidHumidityRatio,          !- Feature Name 33
  Double,                                 !- Feature Data Type 33
  0.012133744170488724,                   !- Feature Value 33
  EPWDesignCoolingDirectNormal,           !- Feature Name 34
  Double,                                 !- Feature Data Type 34
  985,                                    !- Feature Value 34
  EPWDesignCoolingDiffuseHorizontal,      !- Feature Name 35
  Double,                                 !- Feature Data Type 35
  84;                                     !- Feature Value 35

OS:Site,
  {15afce32-95ed-4c34-84bd-c669b0a66f29}, !- Handle
  Denver Intl Ap_CO_USA,                  !- Name
  39.83,                                  !- Latitude {deg}
  -104.65,                                !- Longitude {deg}
  -7,                                     !- Time Zone {hr}
  1650,                                   !- Elevation {m}
  Suburbs;                                !- Terrain

OS:ClimateZones,
  {42bcf6b3-f657-47cc-9ad2-7ec0ac0b46a6}, !- Handle
  IECC,                                   !- Climate Zone Institution Name 1
  ,                                       !- Climate Zone Document Name 1
  0,                                      !- Climate Zone Document Year 1
  5B;                                     !- Climate Zone Value 1

OS:Site:WaterMainsTemperature,
  {9b958752-ff57-430b-ba7a-103efbee9fe1}, !- Handle
  Correlation,                            !- Calculation Method
  ,                                       !- Temperature Schedule Name
  10.8753424657535,                       !- Annual Average Outdoor Air Temperature {C}
  23.1524007936508;                       !- Maximum Difference In Monthly Average Outdoor Air Temperatures {deltaC}

OS:RunPeriodControl:DaylightSavingTime,
  {feef3761-c198-4967-840f-04ce930b8e80}, !- Handle
  Mar 12,                                 !- Start Date
  Nov 5;                                  !- End Date

OS:Site:GroundTemperature:Deep,
  {e8a9e655-47b6-440f-bc0a-b5988a1091ff}, !- Handle
  10.8753424657535,                       !- January Deep Ground Temperature {C}
  10.8753424657535,                       !- February Deep Ground Temperature {C}
  10.8753424657535,                       !- March Deep Ground Temperature {C}
  10.8753424657535,                       !- April Deep Ground Temperature {C}
  10.8753424657535,                       !- May Deep Ground Temperature {C}
  10.8753424657535,                       !- June Deep Ground Temperature {C}
  10.8753424657535,                       !- July Deep Ground Temperature {C}
  10.8753424657535,                       !- August Deep Ground Temperature {C}
  10.8753424657535,                       !- September Deep Ground Temperature {C}
  10.8753424657535,                       !- October Deep Ground Temperature {C}
  10.8753424657535,                       !- November Deep Ground Temperature {C}
  10.8753424657535;                       !- December Deep Ground Temperature {C}

OS:Building,
  {8f150b48-347e-4a1e-a9a7-245b47053e5b}, !- Handle
  Building 1,                             !- Name
  ,                                       !- Building Sector Type
  270,                                    !- North Axis {deg}
  ,                                       !- Nominal Floor to Floor Height {m}
  ,                                       !- Space Type Name
  ,                                       !- Default Construction Set Name
  ,                                       !- Default Schedule Set Name
  3,                                      !- Standards Number of Stories
  2,                                      !- Standards Number of Above Ground Stories
  ,                                       !- Standards Template
  singlefamilyattached,                   !- Standards Building Type
  4;                                      !- Standards Number of Living Units

OS:AdditionalProperties,
  {856e06be-086d-4453-945b-bbc4f73eb95a}, !- Handle
  {8f150b48-347e-4a1e-a9a7-245b47053e5b}, !- Object Name
  num_units,                              !- Feature Name 1
  Integer,                                !- Feature Data Type 1
  4,                                      !- Feature Value 1
  has_rear_units,                         !- Feature Name 2
  Boolean,                                !- Feature Data Type 2
  false,                                  !- Feature Value 2
  horz_location,                          !- Feature Name 3
  String,                                 !- Feature Data Type 3
  Left,                                   !- Feature Value 3
  num_floors,                             !- Feature Name 4
  Integer,                                !- Feature Data Type 4
  2,                                      !- Feature Value 4
  has_water_heater_flue,                  !- Feature Name 5
  Boolean,                                !- Feature Data Type 5
  true,                                   !- Feature Value 5
  has_hvac_flue,                          !- Feature Name 6
  Boolean,                                !- Feature Data Type 6
  true;                                   !- Feature Value 6

OS:ThermalZone,
  {27aa5a57-3d46-44eb-8fac-c1bfaae5f170}, !- Handle
  living zone,                            !- Name
  ,                                       !- Multiplier
  ,                                       !- Ceiling Height {m}
  ,                                       !- Volume {m3}
  ,                                       !- Floor Area {m2}
  ,                                       !- Zone Inside Convection Algorithm
  ,                                       !- Zone Outside Convection Algorithm
  ,                                       !- Zone Conditioning Equipment List Name
  {8b4ba8d5-4e1e-42eb-a96b-a685b7aa22e9}, !- Zone Air Inlet Port List
  {d1919b1f-1586-4814-a29d-b383923bd982}, !- Zone Air Exhaust Port List
  {e7faa635-550c-4b23-a304-d285930de077}, !- Zone Air Node Name
  {5f6a04d2-b990-4174-9473-2a5f4c6b2a81}, !- Zone Return Air Port List
  ,                                       !- Primary Daylighting Control Name
  ,                                       !- Fraction of Zone Controlled by Primary Daylighting Control
  ,                                       !- Secondary Daylighting Control Name
  ,                                       !- Fraction of Zone Controlled by Secondary Daylighting Control
  ,                                       !- Illuminance Map Name
  ,                                       !- Group Rendering Name
  {0e53519a-035a-48c9-a51e-09063f8ebd1c}, !- Thermostat Name
  No;                                     !- Use Ideal Air Loads

OS:Node,
  {38a9c5b4-23cc-4194-9777-4a16b93fa19e}, !- Handle
  Node 1,                                 !- Name
  {e7faa635-550c-4b23-a304-d285930de077}, !- Inlet Port
  ;                                       !- Outlet Port

OS:Connection,
  {e7faa635-550c-4b23-a304-d285930de077}, !- Handle
  {27aa5a57-3d46-44eb-8fac-c1bfaae5f170}, !- Source Object
  11,                                     !- Outlet Port
  {38a9c5b4-23cc-4194-9777-4a16b93fa19e}, !- Target Object
  2;                                      !- Inlet Port

OS:PortList,
  {8b4ba8d5-4e1e-42eb-a96b-a685b7aa22e9}, !- Handle
  {27aa5a57-3d46-44eb-8fac-c1bfaae5f170}, !- HVAC Component
  {b4842aa2-8652-429f-8110-1f7fe1f9f5ca}; !- Port 1

OS:PortList,
  {d1919b1f-1586-4814-a29d-b383923bd982}, !- Handle
  {27aa5a57-3d46-44eb-8fac-c1bfaae5f170}, !- HVAC Component
  {f62ce955-ad36-414e-9299-0c93841a3422}; !- Port 1

OS:PortList,
  {5f6a04d2-b990-4174-9473-2a5f4c6b2a81}, !- Handle
  {27aa5a57-3d46-44eb-8fac-c1bfaae5f170}; !- HVAC Component

OS:Sizing:Zone,
  {f48f2f79-ea95-46de-957f-1b8a7e50084e}, !- Handle
  {27aa5a57-3d46-44eb-8fac-c1bfaae5f170}, !- Zone or ZoneList Name
  SupplyAirTemperature,                   !- Zone Cooling Design Supply Air Temperature Input Method
  14,                                     !- Zone Cooling Design Supply Air Temperature {C}
  11.11,                                  !- Zone Cooling Design Supply Air Temperature Difference {deltaC}
  SupplyAirTemperature,                   !- Zone Heating Design Supply Air Temperature Input Method
  40,                                     !- Zone Heating Design Supply Air Temperature {C}
  11.11,                                  !- Zone Heating Design Supply Air Temperature Difference {deltaC}
  0.0085,                                 !- Zone Cooling Design Supply Air Humidity Ratio {kg-H2O/kg-air}
  0.008,                                  !- Zone Heating Design Supply Air Humidity Ratio {kg-H2O/kg-air}
  ,                                       !- Zone Heating Sizing Factor
  ,                                       !- Zone Cooling Sizing Factor
  DesignDay,                              !- Cooling Design Air Flow Method
  ,                                       !- Cooling Design Air Flow Rate {m3/s}
  ,                                       !- Cooling Minimum Air Flow per Zone Floor Area {m3/s-m2}
  ,                                       !- Cooling Minimum Air Flow {m3/s}
  ,                                       !- Cooling Minimum Air Flow Fraction
  DesignDay,                              !- Heating Design Air Flow Method
  ,                                       !- Heating Design Air Flow Rate {m3/s}
  ,                                       !- Heating Maximum Air Flow per Zone Floor Area {m3/s-m2}
  ,                                       !- Heating Maximum Air Flow {m3/s}
  ,                                       !- Heating Maximum Air Flow Fraction
  No,                                     !- Account for Dedicated Outdoor Air System
  NeutralSupplyAir,                       !- Dedicated Outdoor Air System Control Strategy
  autosize,                               !- Dedicated Outdoor Air Low Setpoint Temperature for Design {C}
  autosize;                               !- Dedicated Outdoor Air High Setpoint Temperature for Design {C}

OS:ZoneHVAC:EquipmentList,
  {4ced7843-2fdb-47b6-8940-8db92ef4cc38}, !- Handle
  Zone HVAC Equipment List 1,             !- Name
  {27aa5a57-3d46-44eb-8fac-c1bfaae5f170}, !- Thermal Zone
  SequentialLoad,                         !- Load Distribution Scheme
  {498506c7-6aad-4ecf-9e29-6ad53cf70c45}, !- Zone Equipment 1
  2,                                      !- Zone Equipment Cooling Sequence 1
  2,                                      !- Zone Equipment Heating or No-Load Sequence 1
  ,                                       !- Zone Equipment Sequential Cooling Fraction Schedule Name 1
  ,                                       !- Zone Equipment Sequential Heating Fraction Schedule Name 1
  {dd526fb7-4da5-4572-b603-c2b5b262f48d}, !- Zone Equipment 2
  1,                                      !- Zone Equipment Cooling Sequence 2
  1,                                      !- Zone Equipment Heating or No-Load Sequence 2
  ,                                       !- Zone Equipment Sequential Cooling Fraction Schedule Name 2
  ;                                       !- Zone Equipment Sequential Heating Fraction Schedule Name 2

OS:Space,
  {8ba397e8-dc73-4e66-b959-273427890f57}, !- Handle
  living space,                           !- Name
  {edf2c50d-7811-42cf-a6bf-2d2cdb886048}, !- Space Type Name
  ,                                       !- Default Construction Set Name
  ,                                       !- Default Schedule Set Name
  ,                                       !- Direction of Relative North {deg}
  ,                                       !- X Origin {m}
  ,                                       !- Y Origin {m}
  ,                                       !- Z Origin {m}
  ,                                       !- Building Story Name
  {27aa5a57-3d46-44eb-8fac-c1bfaae5f170}, !- Thermal Zone Name
  ,                                       !- Part of Total Floor Area
  ,                                       !- Design Specification Outdoor Air Object Name
  {fc780e37-1afd-4524-964c-60611b3c4544}; !- Building Unit Name

OS:Surface,
  {06385615-0763-4877-883d-7e6a2f653480}, !- Handle
  Surface 1,                              !- Name
  Floor,                                  !- Surface Type
  {15635a6f-4c55-46ea-8504-253fa87772dc}, !- Construction Name
  {8ba397e8-dc73-4e66-b959-273427890f57}, !- Space Name
  Surface,                                !- Outside Boundary Condition
  {b2a98450-117d-4523-b966-66319b6c1478}, !- Outside Boundary Condition Object
  NoSun,                                  !- Sun Exposure
  NoWind,                                 !- Wind Exposure
  ,                                       !- View Factor to Ground
  ,                                       !- Number of Vertices
  0, -5.27929086146994, 0,                !- X,Y,Z Vertex 1 {m}
  0, 0, 0,                                !- X,Y,Z Vertex 2 {m}
  2.9329393674833, 0, 0,                  !- X,Y,Z Vertex 3 {m}
  2.9329393674833, -5.27929086146994, 0;  !- X,Y,Z Vertex 4 {m}

OS:Surface,
  {2bb2abe2-cf94-4d3a-9cc4-e825b82e1d4d}, !- Handle
  Surface 2,                              !- Name
  Wall,                                   !- Surface Type
  {0fc9f36f-a59b-4bdd-a320-16f87ca2a9d3}, !- Construction Name
  {8ba397e8-dc73-4e66-b959-273427890f57}, !- Space Name
  Outdoors,                               !- Outside Boundary Condition
  ,                                       !- Outside Boundary Condition Object
  SunExposed,                             !- Sun Exposure
  WindExposed,                            !- Wind Exposure
  ,                                       !- View Factor to Ground
  ,                                       !- Number of Vertices
  0, 0, 2.4384,                           !- X,Y,Z Vertex 1 {m}
  0, 0, 0,                                !- X,Y,Z Vertex 2 {m}
  0, -5.27929086146994, 0,                !- X,Y,Z Vertex 3 {m}
  0, -5.27929086146994, 2.4384;           !- X,Y,Z Vertex 4 {m}

OS:Surface,
  {9b2b3e4b-cf5c-4db3-937a-81fa085278af}, !- Handle
  Surface 3,                              !- Name
  Wall,                                   !- Surface Type
  {0fc9f36f-a59b-4bdd-a320-16f87ca2a9d3}, !- Construction Name
  {8ba397e8-dc73-4e66-b959-273427890f57}, !- Space Name
  Outdoors,                               !- Outside Boundary Condition
  ,                                       !- Outside Boundary Condition Object
  SunExposed,                             !- Sun Exposure
  WindExposed,                            !- Wind Exposure
  ,                                       !- View Factor to Ground
  ,                                       !- Number of Vertices
  2.9329393674833, 0, 2.4384,             !- X,Y,Z Vertex 1 {m}
  2.9329393674833, 0, 0,                  !- X,Y,Z Vertex 2 {m}
  0, 0, 0,                                !- X,Y,Z Vertex 3 {m}
  0, 0, 2.4384;                           !- X,Y,Z Vertex 4 {m}

OS:Surface,
  {6279bc6f-340e-42db-b67c-d221d2fbcd3d}, !- Handle
  Surface 4,                              !- Name
  Wall,                                   !- Surface Type
  {2c73e6d7-f271-4ebe-944a-d5f12ed289aa}, !- Construction Name
  {8ba397e8-dc73-4e66-b959-273427890f57}, !- Space Name
  Adiabatic,                              !- Outside Boundary Condition
  ,                                       !- Outside Boundary Condition Object
  NoSun,                                  !- Sun Exposure
  NoWind,                                 !- Wind Exposure
  ,                                       !- View Factor to Ground
  ,                                       !- Number of Vertices
  2.9329393674833, -5.27929086146994, 2.4384, !- X,Y,Z Vertex 1 {m}
  2.9329393674833, -5.27929086146994, 0,  !- X,Y,Z Vertex 2 {m}
  2.9329393674833, 0, 0,                  !- X,Y,Z Vertex 3 {m}
  2.9329393674833, 0, 2.4384;             !- X,Y,Z Vertex 4 {m}

OS:Surface,
  {d8762c9c-1a65-443d-9aac-6b6dbfd1d13f}, !- Handle
  Surface 5,                              !- Name
  Wall,                                   !- Surface Type
  {0fc9f36f-a59b-4bdd-a320-16f87ca2a9d3}, !- Construction Name
  {8ba397e8-dc73-4e66-b959-273427890f57}, !- Space Name
  Outdoors,                               !- Outside Boundary Condition
  ,                                       !- Outside Boundary Condition Object
  SunExposed,                             !- Sun Exposure
  WindExposed,                            !- Wind Exposure
  ,                                       !- View Factor to Ground
  ,                                       !- Number of Vertices
  1.04865714285714, -5.27929086146994, 1.3467578652282e-07, !- X,Y,Z Vertex 1 {m}
  2.9329393674833, -5.27929086146994, 0,  !- X,Y,Z Vertex 2 {m}
  2.9329393674833, -5.27929086146994, 2.4384, !- X,Y,Z Vertex 3 {m}
  1.04865714285714, -5.27929086146994, 2.43840015861815; !- X,Y,Z Vertex 4 {m}

OS:Surface,
  {96891cff-959e-4bc5-aadd-a3fde63c8c46}, !- Handle
  Surface 6,                              !- Name
  RoofCeiling,                            !- Surface Type
  {aedc99f4-cc29-4012-ad36-9b12bec674df}, !- Construction Name
  {8ba397e8-dc73-4e66-b959-273427890f57}, !- Space Name
  Surface,                                !- Outside Boundary Condition
  {963ff542-f856-4c9d-8547-dcd598fd21d9}, !- Outside Boundary Condition Object
  NoSun,                                  !- Sun Exposure
  NoWind,                                 !- Wind Exposure
  ,                                       !- View Factor to Ground
  ,                                       !- Number of Vertices
  2.9329393674833, -5.27929086146994, 2.4384, !- X,Y,Z Vertex 1 {m}
  2.9329393674833, 0, 2.4384,             !- X,Y,Z Vertex 2 {m}
  0, 0, 2.4384,                           !- X,Y,Z Vertex 3 {m}
  0, -5.27929086146994, 2.4384;           !- X,Y,Z Vertex 4 {m}

OS:SpaceType,
  {edf2c50d-7811-42cf-a6bf-2d2cdb886048}, !- Handle
  Space Type 1,                           !- Name
  ,                                       !- Default Construction Set Name
  ,                                       !- Default Schedule Set Name
  ,                                       !- Group Rendering Name
  ,                                       !- Design Specification Outdoor Air Object Name
  ,                                       !- Standards Template
  ,                                       !- Standards Building Type
  living;                                 !- Standards Space Type

OS:Space,
  {7fa1d894-c981-4297-b8b6-6eb4f9f24d7b}, !- Handle
  living space|story 2,                   !- Name
  {edf2c50d-7811-42cf-a6bf-2d2cdb886048}, !- Space Type Name
  ,                                       !- Default Construction Set Name
  ,                                       !- Default Schedule Set Name