!- NOTE: Auto-generated from /test/osw_files/SFA_4units_1story_UB_UA_3Beds_2Baths_Denver.osw

OS:Version,
  {cf131ad5-95c4-4a92-9a25-894ea989c793}, !- Handle
  2.9.1;                                  !- Version Identifier

OS:SimulationControl,
  {4e5626da-36de-4198-a814-463f1f291451}, !- Handle
  ,                                       !- Do Zone Sizing Calculation
  ,                                       !- Do System Sizing Calculation
  ,                                       !- Do Plant Sizing Calculation
  No;                                     !- Run Simulation for Sizing Periods

OS:Timestep,
  {e1db9acc-0f73-4e90-ae49-3271d241a9d1}, !- Handle
  6;                                      !- Number of Timesteps per Hour

OS:ShadowCalculation,
  {34586f4f-cce7-47c5-bae2-cb7186aaf451}, !- Handle
  20,                                     !- Calculation Frequency
  200;                                    !- Maximum Figures in Shadow Overlap Calculations

OS:SurfaceConvectionAlgorithm:Outside,
  {da455893-2aef-4355-b590-0694ea569cf7}, !- Handle
  DOE-2;                                  !- Algorithm

OS:SurfaceConvectionAlgorithm:Inside,
  {75a969b6-3887-4ecf-9c60-c212e1883fe3}, !- Handle
  TARP;                                   !- Algorithm

OS:ZoneCapacitanceMultiplier:ResearchSpecial,
  {3f204ba2-4a6f-4620-92c1-1e3e88b3d8fa}, !- Handle
  ,                                       !- Temperature Capacity Multiplier
  15,                                     !- Humidity Capacity Multiplier
  ;                                       !- Carbon Dioxide Capacity Multiplier

OS:RunPeriod,
  {fcace2b0-7ff8-439a-a1d0-5906360805a8}, !- Handle
  Run Period 1,                           !- Name
  1,                                      !- Begin Month
  1,                                      !- Begin Day of Month
  12,                                     !- End Month
  31,                                     !- End Day of Month
  ,                                       !- Use Weather File Holidays and Special Days
  ,                                       !- Use Weather File Daylight Saving Period
  ,                                       !- Apply Weekend Holiday Rule
  ,                                       !- Use Weather File Rain Indicators
  ,                                       !- Use Weather File Snow Indicators
  ;                                       !- Number of Times Runperiod to be Repeated

OS:YearDescription,
  {e06d6131-ed23-4806-90e1-c890829797c5}, !- Handle
  2007,                                   !- Calendar Year
  ,                                       !- Day of Week for Start Day
  ;                                       !- Is Leap Year

OS:ThermalZone,
  {b98b3ef6-7970-4e50-81d4-802ff6854c0f}, !- Handle
  living zone,                            !- Name
  ,                                       !- Multiplier
  ,                                       !- Ceiling Height {m}
  ,                                       !- Volume {m3}
  ,                                       !- Floor Area {m2}
  ,                                       !- Zone Inside Convection Algorithm
  ,                                       !- Zone Outside Convection Algorithm
  ,                                       !- Zone Conditioning Equipment List Name
  {cb01f762-d506-4b73-a00d-b2300dd7996b}, !- Zone Air Inlet Port List
  {0690a1c2-c7c9-40d7-9964-b0a33da1c5fc}, !- Zone Air Exhaust Port List
  {04b4dcbe-9ae9-47c5-ab60-a8c12b4dcf92}, !- Zone Air Node Name
  {4998cb07-353c-4f80-8006-8e5c56b46565}, !- Zone Return Air Port List
  ,                                       !- Primary Daylighting Control Name
  ,                                       !- Fraction of Zone Controlled by Primary Daylighting Control
  ,                                       !- Secondary Daylighting Control Name
  ,                                       !- Fraction of Zone Controlled by Secondary Daylighting Control
  ,                                       !- Illuminance Map Name
  ,                                       !- Group Rendering Name
  ,                                       !- Thermostat Name
  No;                                     !- Use Ideal Air Loads

OS:Node,
  {7753c289-85cf-40d3-8c1d-e12eeb6844e1}, !- Handle
  Node 1,                                 !- Name
  {04b4dcbe-9ae9-47c5-ab60-a8c12b4dcf92}, !- Inlet Port
  ;                                       !- Outlet Port

OS:Connection,
  {04b4dcbe-9ae9-47c5-ab60-a8c12b4dcf92}, !- Handle
  {1a1daedf-38bf-4e78-aa86-e71a18c806e8}, !- Name
  {b98b3ef6-7970-4e50-81d4-802ff6854c0f}, !- Source Object
  11,                                     !- Outlet Port
  {7753c289-85cf-40d3-8c1d-e12eeb6844e1}, !- Target Object
  2;                                      !- Inlet Port

OS:PortList,
  {cb01f762-d506-4b73-a00d-b2300dd7996b}, !- Handle
  {ef61e252-ad0c-4de6-93d3-113b09a9ec95}, !- Name
  {b98b3ef6-7970-4e50-81d4-802ff6854c0f}; !- HVAC Component

OS:PortList,
  {0690a1c2-c7c9-40d7-9964-b0a33da1c5fc}, !- Handle
  {a59e4208-dee1-4e15-8e18-855c2ea6e40e}, !- Name
  {b98b3ef6-7970-4e50-81d4-802ff6854c0f}; !- HVAC Component

OS:PortList,
  {4998cb07-353c-4f80-8006-8e5c56b46565}, !- Handle
  {21d954cd-a255-4228-b2d5-26477b84d6e2}, !- Name
  {b98b3ef6-7970-4e50-81d4-802ff6854c0f}; !- HVAC Component

OS:Sizing:Zone,
  {879494fc-43b9-4cad-9cc0-d430438aa238}, !- Handle
  {b98b3ef6-7970-4e50-81d4-802ff6854c0f}, !- Zone or ZoneList Name
  SupplyAirTemperature,                   !- Zone Cooling Design Supply Air Temperature Input Method
  14,                                     !- Zone Cooling Design Supply Air Temperature {C}
  11.11,                                  !- Zone Cooling Design Supply Air Temperature Difference {deltaC}
  SupplyAirTemperature,                   !- Zone Heating Design Supply Air Temperature Input Method
  40,                                     !- Zone Heating Design Supply Air Temperature {C}
  11.11,                                  !- Zone Heating Design Supply Air Temperature Difference {deltaC}
  0.0085,                                 !- Zone Cooling Design Supply Air Humidity Ratio {kg-H2O/kg-air}
  0.008,                                  !- Zone Heating Design Supply Air Humidity Ratio {kg-H2O/kg-air}
  ,                                       !- Zone Heating Sizing Factor
  ,                                       !- Zone Cooling Sizing Factor
  DesignDay,                              !- Cooling Design Air Flow Method
  ,                                       !- Cooling Design Air Flow Rate {m3/s}
  ,                                       !- Cooling Minimum Air Flow per Zone Floor Area {m3/s-m2}
  ,                                       !- Cooling Minimum Air Flow {m3/s}
  ,                                       !- Cooling Minimum Air Flow Fraction
  DesignDay,                              !- Heating Design Air Flow Method
  ,                                       !- Heating Design Air Flow Rate {m3/s}
  ,                                       !- Heating Maximum Air Flow per Zone Floor Area {m3/s-m2}
  ,                                       !- Heating Maximum Air Flow {m3/s}
  ,                                       !- Heating Maximum Air Flow Fraction
  ,                                       !- Design Zone Air Distribution Effectiveness in Cooling Mode
  ,                                       !- Design Zone Air Distribution Effectiveness in Heating Mode
  No,                                     !- Account for Dedicated Outdoor Air System
  NeutralSupplyAir,                       !- Dedicated Outdoor Air System Control Strategy
  autosize,                               !- Dedicated Outdoor Air Low Setpoint Temperature for Design {C}
  autosize;                               !- Dedicated Outdoor Air High Setpoint Temperature for Design {C}

OS:ZoneHVAC:EquipmentList,
  {6de59d85-1b71-4ea4-8300-abf2293d5d10}, !- Handle
  Zone HVAC Equipment List 1,             !- Name
  {b98b3ef6-7970-4e50-81d4-802ff6854c0f}; !- Thermal Zone

OS:Space,
  {b300746e-eab3-48c1-9f92-683564c4c49f}, !- Handle
  living space,                           !- Name
  {34ea9d54-fba2-48e0-b3c0-84dd9560dbb0}, !- Space Type Name
  ,                                       !- Default Construction Set Name
  ,                                       !- Default Schedule Set Name
  ,                                       !- Direction of Relative North {deg}
  ,                                       !- X Origin {m}
  ,                                       !- Y Origin {m}
  ,                                       !- Z Origin {m}
  ,                                       !- Building Story Name
  {b98b3ef6-7970-4e50-81d4-802ff6854c0f}, !- Thermal Zone Name
  ,                                       !- Part of Total Floor Area
  ,                                       !- Design Specification Outdoor Air Object Name
  {6049ba17-c532-4ee1-92c3-23a2158c0430}; !- Building Unit Name

OS:Surface,
  {383d1537-7476-41d4-bd0d-8e742808db4f}, !- Handle
  Surface 1,                              !- Name
  Floor,                                  !- Surface Type
  ,                                       !- Construction Name
  {b300746e-eab3-48c1-9f92-683564c4c49f}, !- Space Name
  Surface,                                !- Outside Boundary Condition
  {6730b009-77ed-4a89-8569-1963261f74c9}, !- Outside Boundary Condition Object
  NoSun,                                  !- Sun Exposure
  NoWind,                                 !- Wind Exposure
  ,                                       !- View Factor to Ground
  ,                                       !- Number of Vertices
  0, -12.9315688143396, 0,                !- X,Y,Z Vertex 1 {m}
  0, 0, 0,                                !- X,Y,Z Vertex 2 {m}
  6.46578440716979, 0, 0,                 !- X,Y,Z Vertex 3 {m}
  6.46578440716979, -12.9315688143396, 0; !- X,Y,Z Vertex 4 {m}

OS:Surface,
  {01c05285-448e-442c-bdfb-ad4c48319d3f}, !- Handle
  Surface 2,                              !- Name
  Wall,                                   !- Surface Type
  ,                                       !- Construction Name
  {b300746e-eab3-48c1-9f92-683564c4c49f}, !- Space Name
  Outdoors,                               !- Outside Boundary Condition
  ,                                       !- Outside Boundary Condition Object
  SunExposed,                             !- Sun Exposure
  WindExposed,                            !- Wind Exposure
  ,                                       !- View Factor to Ground
  ,                                       !- Number of Vertices
  0, 0, 2.4384,                           !- X,Y,Z Vertex 1 {m}
  0, 0, 0,                                !- X,Y,Z Vertex 2 {m}
  0, -12.9315688143396, 0,                !- X,Y,Z Vertex 3 {m}
  0, -12.9315688143396, 2.4384;           !- X,Y,Z Vertex 4 {m}

OS:Surface,
  {4648e046-a56c-4130-8721-8d618302d118}, !- Handle
  Surface 3,                              !- Name
  Wall,                                   !- Surface Type
  ,                                       !- Construction Name
  {b300746e-eab3-48c1-9f92-683564c4c49f}, !- Space Name
  Outdoors,                               !- Outside Boundary Condition
  ,                                       !- Outside Boundary Condition Object
  SunExposed,                             !- Sun Exposure
  WindExposed,                            !- Wind Exposure
  ,                                       !- View Factor to Ground
  ,                                       !- Number of Vertices
  6.46578440716979, 0, 2.4384,            !- X,Y,Z Vertex 1 {m}
  6.46578440716979, 0, 0,                 !- X,Y,Z Vertex 2 {m}
  0, 0, 0,                                !- X,Y,Z Vertex 3 {m}
  0, 0, 2.4384;                           !- X,Y,Z Vertex 4 {m}

OS:Surface,
  {a2a4ab06-be70-4f70-8b2e-6b30bda1ed94}, !- Handle
  Surface 4,                              !- Name
  Wall,                                   !- Surface Type
  ,                                       !- Construction Name
  {b300746e-eab3-48c1-9f92-683564c4c49f}, !- Space Name
  Surface,                                !- Outside Boundary Condition
  {3d3847c7-0af2-4fde-b3bb-b2f79ffa6875}, !- Outside Boundary Condition Object
  NoSun,                                  !- Sun Exposure
  NoWind,                                 !- Wind Exposure
  ,                                       !- View Factor to Ground
  ,                                       !- Number of Vertices
  6.46578440716979, -12.9315688143396, 2.4384, !- X,Y,Z Vertex 1 {m}
  6.46578440716979, -12.9315688143396, 0, !- X,Y,Z Vertex 2 {m}
  6.46578440716979, 0, 0,                 !- X,Y,Z Vertex 3 {m}
  6.46578440716979, 0, 2.4384;            !- X,Y,Z Vertex 4 {m}

OS:Surface,
  {44806db6-372c-4737-8df7-35735cb34ffe}, !- Handle
  Surface 5,                              !- Name
  Wall,                                   !- Surface Type
  ,                                       !- Construction Name
  {b300746e-eab3-48c1-9f92-683564c4c49f}, !- Space Name
  Outdoors,                               !- Outside Boundary Condition
  ,                                       !- Outside Boundary Condition Object
  SunExposed,                             !- Sun Exposure
  WindExposed,                            !- Wind Exposure
  ,                                       !- View Factor to Ground
  ,                                       !- Number of Vertices
  0, -12.9315688143396, 2.4384,           !- X,Y,Z Vertex 1 {m}
  0, -12.9315688143396, 0,                !- X,Y,Z Vertex 2 {m}
  6.46578440716979, -12.9315688143396, 0, !- X,Y,Z Vertex 3 {m}
  6.46578440716979, -12.9315688143396, 2.4384; !- X,Y,Z Vertex 4 {m}

OS:Surface,
  {0687013e-ecdc-4191-9295-2e097d060676}, !- Handle
  Surface 6,                              !- Name
  RoofCeiling,                            !- Surface Type
  ,                                       !- Construction Name
  {b300746e-eab3-48c1-9f92-683564c4c49f}, !- Space Name
  Surface,                                !- Outside Boundary Condition
  {1c6b1598-e9f4-4850-9854-dcd83a6261c4}, !- Outside Boundary Condition Object
  NoSun,                                  !- Sun Exposure
  NoWind,                                 !- Wind Exposure
  ,                                       !- View Factor to Ground
  ,                                       !- Number of Vertices
  6.46578440716979, -12.9315688143396, 2.4384, !- X,Y,Z Vertex 1 {m}
  6.46578440716979, 0, 2.4384,            !- X,Y,Z Vertex 2 {m}
  0, 0, 2.4384,                           !- X,Y,Z Vertex 3 {m}
  0, -12.9315688143396, 2.4384;           !- X,Y,Z Vertex 4 {m}

OS:SpaceType,
  {34ea9d54-fba2-48e0-b3c0-84dd9560dbb0}, !- Handle
  Space Type 1,                           !- Name
  ,                                       !- Default Construction Set Name
  ,                                       !- Default Schedule Set Name
  ,                                       !- Group Rendering Name
  ,                                       !- Design Specification Outdoor Air Object Name
  ,                                       !- Standards Template
  ,                                       !- Standards Building Type
  living;                                 !- Standards Space Type

OS:ThermalZone,
  {df6e6451-9569-4b62-bf76-7820f6fca9bb}, !- Handle
  living zone|unit 2,                     !- Name
  ,                                       !- Multiplier
  ,                                       !- Ceiling Height {m}
  ,                                       !- Volume {m3}
  ,                                       !- Floor Area {m2}
  ,                                       !- Zone Inside Convection Algorithm
  ,                                       !- Zone Outside Convection Algorithm
  ,                                       !- Zone Conditioning Equipment List Name
  {d19be2db-8820-476d-b375-1ab581c210f1}, !- Zone Air Inlet Port List
  {7b37075e-566a-471d-861e-a11048b84a88}, !- Zone Air Exhaust Port List
  {5e777f0d-2ec2-4aa9-9b3f-bd1abe5ee824}, !- Zone Air Node Name
  {b00a5a1d-9c01-4d54-8aee-16c00bf9f0a9}, !- Zone Return Air Port List
  ,                                       !- Primary Daylighting Control Name
  ,                                       !- Fraction of Zone Controlled by Primary Daylighting Control
  ,                                       !- Secondary Daylighting Control Name
  ,                                       !- Fraction of Zone Controlled by Secondary Daylighting Control
  ,                                       !- Illuminance Map Name
  ,                                       !- Group Rendering Name
  ,                                       !- Thermostat Name
  No;                                     !- Use Ideal Air Loads

OS:Node,
  {1a8bf3d6-91e2-4e6d-8871-08429b1a1ee6}, !- Handle
  Node 2,                                 !- Name
  {5e777f0d-2ec2-4aa9-9b3f-bd1abe5ee824}, !- Inlet Port
  ;                                       !- Outlet Port

OS:Connection,
  {5e777f0d-2ec2-4aa9-9b3f-bd1abe5ee824}, !- Handle
  {5b9ece75-dee2-45ee-81b3-38e18f0f1f89}, !- Name
  {df6e6451-9569-4b62-bf76-7820f6fca9bb}, !- Source Object
  11,                                     !- Outlet Port
  {1a8bf3d6-91e2-4e6d-8871-08429b1a1ee6}, !- Target Object
  2;                                      !- Inlet Port

OS:PortList,
  {d19be2db-8820-476d-b375-1ab581c210f1}, !- Handle
  {7a352f02-3768-4d4f-96c5-1385a65a3340}, !- Name
  {df6e6451-9569-4b62-bf76-7820f6fca9bb}; !- HVAC Component

OS:PortList,
  {7b37075e-566a-471d-861e-a11048b84a88}, !- Handle
  {427410b4-23d5-4067-bf23-b24fe38ee838}, !- Name
  {df6e6451-9569-4b62-bf76-7820f6fca9bb}; !- HVAC Component

OS:PortList,
  {b00a5a1d-9c01-4d54-8aee-16c00bf9f0a9}, !- Handle
  {f459e7ed-a3ff-4afa-b12c-1c3d1c5cca7c}, !- Name
  {df6e6451-9569-4b62-bf76-7820f6fca9bb}; !- HVAC Component

OS:Sizing:Zone,
  {6ba7328a-713d-42fc-9dd7-cec0c52cfc5d}, !- Handle
  {df6e6451-9569-4b62-bf76-7820f6fca9bb}, !- Zone or ZoneList Name
  SupplyAirTemperature,                   !- Zone Cooling Design Supply Air Temperature Input Method
  14,                                     !- Zone Cooling Design Supply Air Temperature {C}
  11.11,                                  !- Zone Cooling Design Supply Air Temperature Difference {deltaC}
  SupplyAirTemperature,                   !- Zone Heating Design Supply Air Temperature Input Method
  40,                                     !- Zone Heating Design Supply Air Temperature {C}
  11.11,                                  !- Zone Heating Design Supply Air Temperature Difference {deltaC}
  0.0085,                                 !- Zone Cooling Design Supply Air Humidity Ratio {kg-H2O/kg-air}
  0.008,                                  !- Zone Heating Design Supply Air Humidity Ratio {kg-H2O/kg-air}
  ,                                       !- Zone Heating Sizing Factor
  ,                                       !- Zone Cooling Sizing Factor
  DesignDay,                              !- Cooling Design Air Flow Method
  ,                                       !- Cooling Design Air Flow Rate {m3/s}
  ,                                       !- Cooling Minimum Air Flow per Zone Floor Area {m3/s-m2}
  ,                                       !- Cooling Minimum Air Flow {m3/s}
  ,                                       !- Cooling Minimum Air Flow Fraction
  DesignDay,                              !- Heating Design Air Flow Method
  ,                                       !- Heating Design Air Flow Rate {m3/s}
  ,                                       !- Heating Maximum Air Flow per Zone Floor Area {m3/s-m2}
  ,                                       !- Heating Maximum Air Flow {m3/s}
  ,                                       !- Heating Maximum Air Flow Fraction
  ,                                       !- Design Zone Air Distribution Effectiveness in Cooling Mode
  ,                                       !- Design Zone Air Distribution Effectiveness in Heating Mode
  No,                                     !- Account for Dedicated Outdoor Air System
  NeutralSupplyAir,                       !- Dedicated Outdoor Air System Control Strategy
  autosize,                               !- Dedicated Outdoor Air Low Setpoint Temperature for Design {C}
  autosize;                               !- Dedicated Outdoor Air High Setpoint Temperature for Design {C}

OS:ZoneHVAC:EquipmentList,
  {0aa96404-6e9a-48e2-9237-87074beeb865}, !- Handle
  Zone HVAC Equipment List 2,             !- Name
  {df6e6451-9569-4b62-bf76-7820f6fca9bb}; !- Thermal Zone

OS:Space,
  {b22394cc-898e-4d42-81c0-0b10a66fbec6}, !- Handle
  living space|unit 2|story 1,            !- Name
  {34ea9d54-fba2-48e0-b3c0-84dd9560dbb0}, !- Space Type Name
  ,                                       !- Default Construction Set Name
  ,                                       !- Default Schedule Set Name
  -0,                                     !- Direction of Relative North {deg}
  0,                                      !- X Origin {m}
  0,                                      !- Y Origin {m}
  0,                                      !- Z Origin {m}
  ,                                       !- Building Story Name
  {df6e6451-9569-4b62-bf76-7820f6fca9bb}, !- Thermal Zone Name
  ,                                       !- Part of Total Floor Area
  ,                                       !- Design Specification Outdoor Air Object Name
  {b0624ca3-2cb9-4b81-a1b4-1c1eb646d088}; !- Building Unit Name

OS:Surface,
  {9e425766-f8aa-4b50-b472-8665985f0142}, !- Handle
  Surface 12,                             !- Name
  Floor,                                  !- Surface Type
  ,                                       !- Construction Name
  {b22394cc-898e-4d42-81c0-0b10a66fbec6}, !- Space Name
  Surface,                                !- Outside Boundary Condition
  {0b333b61-ffb3-46bf-8664-6c1d7769e8f7}, !- Outside Boundary Condition Object
  NoSun,                                  !- Sun Exposure
  NoWind,                                 !- Wind Exposure
  ,                                       !- View Factor to Ground
  ,                                       !- Number of Vertices
  6.46578440716979, -12.9315688143396, 0, !- X,Y,Z Vertex 1 {m}
  6.46578440716979, 0, 0,                 !- X,Y,Z Vertex 2 {m}
  12.9315688143396, 0, 0,                 !- X,Y,Z Vertex 3 {m}
  12.9315688143396, -12.9315688143396, 0; !- X,Y,Z Vertex 4 {m}

OS:Surface,
  {3d3847c7-0af2-4fde-b3bb-b2f79ffa6875}, !- Handle
  Surface 13,                             !- Name
  Wall,                                   !- Surface Type
  ,                                       !- Construction Name
  {b22394cc-898e-4d42-81c0-0b10a66fbec6}, !- Space Name
  Surface,                                !- Outside Boundary Condition
  {a2a4ab06-be70-4f70-8b2e-6b30bda1ed94}, !- Outside Boundary Condition Object
  NoSun,                                  !- Sun Exposure
  NoWind,                                 !- Wind Exposure
  ,                                       !- View Factor to Ground
  ,                                       !- Number of Vertices
  6.46578440716979, 0, 2.4384,            !- X,Y,Z Vertex 1 {m}
  6.46578440716979, 0, 0,                 !- X,Y,Z Vertex 2 {m}
  6.46578440716979, -12.9315688143396, 0, !- X,Y,Z Vertex 3 {m}
  6.46578440716979, -12.9315688143396, 2.4384; !- X,Y,Z Vertex 4 {m}

OS:Surface,
  {9d937a31-685a-4b48-9e74-eba76b8a8381}, !- Handle
  Surface 14,                             !- Name
  Wall,                                   !- Surface Type
  ,                                       !- Construction Name
  {b22394cc-898e-4d42-81c0-0b10a66fbec6}, !- Space Name
  Outdoors,                               !- Outside Boundary Condition
  ,                                       !- Outside Boundary Condition Object
  SunExposed,                             !- Sun Exposure
  WindExposed,                            !- Wind Exposure
  ,                                       !- View Factor to Ground
  ,                                       !- Number of Vertices
  12.9315688143396, 0, 2.4384,            !- X,Y,Z Vertex 1 {m}
  12.9315688143396, 0, 0,                 !- X,Y,Z Vertex 2 {m}
  6.46578440716979, 0, 0,                 !- X,Y,Z Vertex 3 {m}
  6.46578440716979, 0, 2.4384;            !- X,Y,Z Vertex 4 {m}

OS:Surface,
  {d0f530db-a828-4c2b-adc0-e1431cb0dfb2}, !- Handle
  Surface 15,                             !- Name
  Wall,                                   !- Surface Type
  ,                                       !- Construction Name
  {b22394cc-898e-4d42-81c0-0b10a66fbec6}, !- Space Name
  Surface,                                !- Outside Boundary Condition
  {aea9875b-866f-4818-ab5f-1bc3b397ce6a}, !- Outside Boundary Condition Object
  NoSun,                                  !- Sun Exposure
  NoWind,                                 !- Wind Exposure
  ,                                       !- View Factor to Ground
  ,                                       !- Number of Vertices
  12.9315688143396, -12.9315688143396, 2.4384, !- X,Y,Z Vertex 1 {m}
  12.9315688143396, -12.9315688143396, 0, !- X,Y,Z Vertex 2 {m}
  12.9315688143396, 0, 0,                 !- X,Y,Z Vertex 3 {m}
  12.9315688143396, 0, 2.4384;            !- X,Y,Z Vertex 4 {m}

OS:Surface,
  {83918475-b010-41ef-b0b7-284cb3b440c5}, !- Handle
  Surface 16,                             !- Name
  Wall,                                   !- Surface Type
  ,                                       !- Construction Name
  {b22394cc-898e-4d42-81c0-0b10a66fbec6}, !- Space Name
  Outdoors,                               !- Outside Boundary Condition
  ,                                       !- Outside Boundary Condition Object
  SunExposed,                             !- Sun Exposure
  WindExposed,                            !- Wind Exposure
  ,                                       !- View Factor to Ground
  ,                                       !- Number of Vertices
  6.46578440716979, -12.9315688143396, 2.4384, !- X,Y,Z Vertex 1 {m}
  6.46578440716979, -12.9315688143396, 0, !- X,Y,Z Vertex 2 {m}
  12.9315688143396, -12.9315688143396, 0, !- X,Y,Z Vertex 3 {m}
  12.9315688143396, -12.9315688143396, 2.4384; !- X,Y,Z Vertex 4 {m}

OS:Surface,
  {fd77e0a2-02b9-4d95-abd3-297ec048ef0b}, !- Handle
  Surface 17,                             !- Name
  RoofCeiling,                            !- Surface Type
  ,                                       !- Construction Name
  {b22394cc-898e-4d42-81c0-0b10a66fbec6}, !- Space Name
  Surface,                                !- Outside Boundary Condition
  {6d7a9d73-c427-4cc3-af8a-27d42695d05b}, !- Outside Boundary Condition Object
  NoSun,                                  !- Sun Exposure
  NoWind,                                 !- Wind Exposure
  ,                                       !- View Factor to Ground
  ,                                       !- Number of Vertices
  12.9315688143396, -12.9315688143396, 2.4384, !- X,Y,Z Vertex 1 {m}
  12.9315688143396, 0, 2.4384,            !- X,Y,Z Vertex 2 {m}
  6.46578440716979, 0, 2.4384,            !- X,Y,Z Vertex 3 {m}
  6.46578440716979, -12.9315688143396, 2.4384; !- X,Y,Z Vertex 4 {m}

OS:ThermalZone,
  {ade538e5-9799-477b-907e-df8d52c076e7}, !- Handle
  living zone|unit 3,                     !- Name
  ,                                       !- Multiplier
  ,                                       !- Ceiling Height {m}
  ,                                       !- Volume {m3}
  ,                                       !- Floor Area {m2}
  ,                                       !- Zone Inside Convection Algorithm
  ,                                       !- Zone Outside Convection Algorithm
  ,                                       !- Zone Conditioning Equipment List Name
  {b2d3f75f-9e21-489a-a748-73ae2f3e3d71}, !- Zone Air Inlet Port List
  {16608a92-d395-4025-8cdd-c1550539cc69}, !- Zone Air Exhaust Port List
  {c47a9c10-4a28-403b-ba5b-6cdbf4476c9b}, !- Zone Air Node Name
  {c9a14569-b6c8-46f8-8b0f-81039bed3bdf}, !- Zone Return Air Port List
  ,                                       !- Primary Daylighting Control Name
  ,                                       !- Fraction of Zone Controlled by Primary Daylighting Control
  ,                                       !- Secondary Daylighting Control Name
  ,                                       !- Fraction of Zone Controlled by Secondary Daylighting Control
  ,                                       !- Illuminance Map Name
  ,                                       !- Group Rendering Name
  ,                                       !- Thermostat Name
  No;                                     !- Use Ideal Air Loads

OS:Node,
  {a31383f5-2558-47f7-9ad6-a5eb64aaa265}, !- Handle
  Node 3,                                 !- Name
  {c47a9c10-4a28-403b-ba5b-6cdbf4476c9b}, !- Inlet Port
  ;                                       !- Outlet Port

OS:Connection,
  {c47a9c10-4a28-403b-ba5b-6cdbf4476c9b}, !- Handle
  {f0ff47a5-a684-44f4-8bf3-0e1766571b64}, !- Name
  {ade538e5-9799-477b-907e-df8d52c076e7}, !- Source Object
  11,                                     !- Outlet Port
  {a31383f5-2558-47f7-9ad6-a5eb64aaa265}, !- Target Object
  2;                                      !- Inlet Port

OS:PortList,
  {b2d3f75f-9e21-489a-a748-73ae2f3e3d71}, !- Handle
  {78b41b54-6de0-42fb-933b-efaa2577b7e2}, !- Name
  {ade538e5-9799-477b-907e-df8d52c076e7}; !- HVAC Component

OS:PortList,
  {16608a92-d395-4025-8cdd-c1550539cc69}, !- Handle
  {f9bbdc41-2dc8-48b6-9fa4-2d665b2be0ad}, !- Name
  {ade538e5-9799-477b-907e-df8d52c076e7}; !- HVAC Component

OS:PortList,
  {c9a14569-b6c8-46f8-8b0f-81039bed3bdf}, !- Handle
  {b056d0c5-78c4-474c-8f24-8b968ca9b362}, !- Name
  {ade538e5-9799-477b-907e-df8d52c076e7}; !- HVAC Component

OS:Sizing:Zone,
  {2a9ec7da-644a-4f43-9342-ed9917b8a103}, !- Handle
  {ade538e5-9799-477b-907e-df8d52c076e7}, !- Zone or ZoneList Name