!- NOTE: Auto-generated from /test/osw_files/SFA_4units_1story_SL_UA_3Beds_2Baths_Denver_Central_System_Fan_Coil.osw

OS:Version,
  {83f215d9-7f0f-4e9a-9310-927b77c237fe}, !- Handle
  2.9.1;                                  !- Version Identifier

OS:SimulationControl,
  {6db10ade-212f-425c-a838-ecedcfa39045}, !- Handle
  ,                                       !- Do Zone Sizing Calculation
  ,                                       !- Do System Sizing Calculation
  ,                                       !- Do Plant Sizing Calculation
  Yes;                                    !- Run Simulation for Sizing Periods

OS:Timestep,
  {8de6e80b-ff2b-4d50-b102-47752ca779f0}, !- Handle
  6;                                      !- Number of Timesteps per Hour

OS:ShadowCalculation,
  {2010dac3-5885-46a2-a54d-3d80811164f0}, !- Handle
  20,                                     !- Calculation Frequency
  200;                                    !- Maximum Figures in Shadow Overlap Calculations

OS:SurfaceConvectionAlgorithm:Outside,
  {96ace095-94c5-46e6-98a6-855399f81966}, !- Handle
  DOE-2;                                  !- Algorithm

OS:SurfaceConvectionAlgorithm:Inside,
  {63e737df-d187-4ec7-a78a-2e60bd03ca12}, !- Handle
  TARP;                                   !- Algorithm

OS:ZoneCapacitanceMultiplier:ResearchSpecial,
  {f2a5d498-2ce7-4562-8e6c-3ac07d266dd2}, !- Handle
  ,                                       !- Temperature Capacity Multiplier
  15,                                     !- Humidity Capacity Multiplier
  ;                                       !- Carbon Dioxide Capacity Multiplier

OS:RunPeriod,
  {98ca2c00-08f7-465d-a794-f1a92aef4746}, !- Handle
  Run Period 1,                           !- Name
  1,                                      !- Begin Month
  1,                                      !- Begin Day of Month
  12,                                     !- End Month
  31,                                     !- End Day of Month
  ,                                       !- Use Weather File Holidays and Special Days
  ,                                       !- Use Weather File Daylight Saving Period
  ,                                       !- Apply Weekend Holiday Rule
  ,                                       !- Use Weather File Rain Indicators
  ,                                       !- Use Weather File Snow Indicators
  ;                                       !- Number of Times Runperiod to be Repeated

OS:YearDescription,
  {d3739b41-d4c0-486a-97c9-ab59284e008c}, !- Handle
  2007,                                   !- Calendar Year
  ,                                       !- Day of Week for Start Day
  ;                                       !- Is Leap Year

OS:ThermalZone,
  {63618e21-ca2d-4fde-9598-578033bf13e7}, !- Handle
  living zone,                            !- Name
  ,                                       !- Multiplier
  ,                                       !- Ceiling Height {m}
  ,                                       !- Volume {m3}
  ,                                       !- Floor Area {m2}
  ,                                       !- Zone Inside Convection Algorithm
  ,                                       !- Zone Outside Convection Algorithm
  ,                                       !- Zone Conditioning Equipment List Name
  {4a457052-4339-4fa0-8f6a-b0f2b21d5ea5}, !- Zone Air Inlet Port List
  {4a018c67-e3c1-4c0d-ac19-a8c4951ee472}, !- Zone Air Exhaust Port List
  {64d43efb-52b2-4a8d-824e-49b56c74fd74}, !- Zone Air Node Name
  {1d74caab-5fdf-4be7-8678-abd1e536afac}, !- Zone Return Air Port List
  ,                                       !- Primary Daylighting Control Name
  ,                                       !- Fraction of Zone Controlled by Primary Daylighting Control
  ,                                       !- Secondary Daylighting Control Name
  ,                                       !- Fraction of Zone Controlled by Secondary Daylighting Control
  ,                                       !- Illuminance Map Name
  ,                                       !- Group Rendering Name
  {586ef96b-7301-4357-9a37-e53f65d7c45a}, !- Thermostat Name
  No;                                     !- Use Ideal Air Loads

OS:Node,
  {8e8114f4-a4dd-4b28-a8ed-7a6add2bbfcd}, !- Handle
  Node 1,                                 !- Name
  {64d43efb-52b2-4a8d-824e-49b56c74fd74}, !- Inlet Port
  ;                                       !- Outlet Port

OS:Connection,
  {64d43efb-52b2-4a8d-824e-49b56c74fd74}, !- Handle
  {d4b48ee6-69eb-40df-9b65-bb463109aa04}, !- Name
  {63618e21-ca2d-4fde-9598-578033bf13e7}, !- Source Object
  11,                                     !- Outlet Port
  {8e8114f4-a4dd-4b28-a8ed-7a6add2bbfcd}, !- Target Object
  2;                                      !- Inlet Port

OS:PortList,
  {4a457052-4339-4fa0-8f6a-b0f2b21d5ea5}, !- Handle
  {3ac67564-e5c3-420c-afe7-4107e968f8c8}, !- Name
  {63618e21-ca2d-4fde-9598-578033bf13e7}, !- HVAC Component
  {78b48dec-045f-4896-9b62-129e1234f047}; !- Port 1

OS:PortList,
  {4a018c67-e3c1-4c0d-ac19-a8c4951ee472}, !- Handle
  {6944578a-59bd-4778-84c3-bab463786e69}, !- Name
  {63618e21-ca2d-4fde-9598-578033bf13e7}, !- HVAC Component
  {519d426a-e156-4510-bc2b-d45e26489b62}; !- Port 1

OS:PortList,
  {1d74caab-5fdf-4be7-8678-abd1e536afac}, !- Handle
  {782ec1a1-2e58-43ee-83a2-97d0dd368ab0}, !- Name
  {63618e21-ca2d-4fde-9598-578033bf13e7}; !- HVAC Component

OS:Sizing:Zone,
  {f950e0ae-82fa-45d4-b37c-ff7d1391d3fd}, !- Handle
  {63618e21-ca2d-4fde-9598-578033bf13e7}, !- Zone or ZoneList Name
  SupplyAirTemperature,                   !- Zone Cooling Design Supply Air Temperature Input Method
  12.7777777777778,                       !- Zone Cooling Design Supply Air Temperature {C}
  11.11,                                  !- Zone Cooling Design Supply Air Temperature Difference {deltaC}
  SupplyAirTemperature,                   !- Zone Heating Design Supply Air Temperature Input Method
  40.0000000000001,                       !- Zone Heating Design Supply Air Temperature {C}
  11.11,                                  !- Zone Heating Design Supply Air Temperature Difference {deltaC}
  0.0085,                                 !- Zone Cooling Design Supply Air Humidity Ratio {kg-H2O/kg-air}
  0.008,                                  !- Zone Heating Design Supply Air Humidity Ratio {kg-H2O/kg-air}
  ,                                       !- Zone Heating Sizing Factor
  ,                                       !- Zone Cooling Sizing Factor
  DesignDay,                              !- Cooling Design Air Flow Method
  ,                                       !- Cooling Design Air Flow Rate {m3/s}
  ,                                       !- Cooling Minimum Air Flow per Zone Floor Area {m3/s-m2}
  ,                                       !- Cooling Minimum Air Flow {m3/s}
  ,                                       !- Cooling Minimum Air Flow Fraction
  DesignDay,                              !- Heating Design Air Flow Method
  ,                                       !- Heating Design Air Flow Rate {m3/s}
  ,                                       !- Heating Maximum Air Flow per Zone Floor Area {m3/s-m2}
  ,                                       !- Heating Maximum Air Flow {m3/s}
  ,                                       !- Heating Maximum Air Flow Fraction
  ,                                       !- Design Zone Air Distribution Effectiveness in Cooling Mode
  ,                                       !- Design Zone Air Distribution Effectiveness in Heating Mode
  No,                                     !- Account for Dedicated Outdoor Air System
  NeutralSupplyAir,                       !- Dedicated Outdoor Air System Control Strategy
  autosize,                               !- Dedicated Outdoor Air Low Setpoint Temperature for Design {C}
  autosize;                               !- Dedicated Outdoor Air High Setpoint Temperature for Design {C}

OS:ZoneHVAC:EquipmentList,
  {94b9a9e1-f820-431a-9ed5-40ce31583b5d}, !- Handle
  Zone HVAC Equipment List 1,             !- Name
  {63618e21-ca2d-4fde-9598-578033bf13e7}, !- Thermal Zone
  ,                                       !- Load Distribution Scheme
  {db35f565-8add-4375-9c60-9be7da6f5c70}, !- Zone Equipment 1
  1,                                      !- Zone Equipment Cooling Sequence 1
  1,                                      !- Zone Equipment Heating or No-Load Sequence 1
  ,                                       !- Zone Equipment Sequential Cooling Fraction Schedule Name 1
  ;                                       !- Zone Equipment Sequential Heating Fraction Schedule Name 1

OS:Space,
  {ed58844b-8e17-4fdf-b1a2-1f98eb8dd001}, !- Handle
  living space,                           !- Name
  {7c295dd2-bdcb-4e74-8c37-0858c5c6799d}, !- Space Type Name
  ,                                       !- Default Construction Set Name
  ,                                       !- Default Schedule Set Name
  ,                                       !- Direction of Relative North {deg}
  ,                                       !- X Origin {m}
  ,                                       !- Y Origin {m}
  ,                                       !- Z Origin {m}
  ,                                       !- Building Story Name
  {63618e21-ca2d-4fde-9598-578033bf13e7}, !- Thermal Zone Name
  ,                                       !- Part of Total Floor Area
  ,                                       !- Design Specification Outdoor Air Object Name
  {2e9b3991-4d9b-47dc-9889-62b48c1ca1cf}; !- Building Unit Name

OS:Surface,
  {e02db1cb-6bc5-4bde-8732-c11965ec9a49}, !- Handle
  Surface 1,                              !- Name
  Floor,                                  !- Surface Type
  ,                                       !- Construction Name
  {ed58844b-8e17-4fdf-b1a2-1f98eb8dd001}, !- Space Name
  Foundation,                             !- Outside Boundary Condition
  ,                                       !- Outside Boundary Condition Object
  NoSun,                                  !- Sun Exposure
  NoWind,                                 !- Wind Exposure
  ,                                       !- View Factor to Ground
  ,                                       !- Number of Vertices
  0, -12.9315688143396, 0,                !- X,Y,Z Vertex 1 {m}
  0, 0, 0,                                !- X,Y,Z Vertex 2 {m}
  6.46578440716979, 0, 0,                 !- X,Y,Z Vertex 3 {m}
  6.46578440716979, -12.9315688143396, 0; !- X,Y,Z Vertex 4 {m}

OS:Surface,
  {3ddb00a1-5169-4213-934c-d99378dc1597}, !- Handle
  Surface 2,                              !- Name
  Wall,                                   !- Surface Type
  ,                                       !- Construction Name
  {ed58844b-8e17-4fdf-b1a2-1f98eb8dd001}, !- Space Name
  Outdoors,                               !- Outside Boundary Condition
  ,                                       !- Outside Boundary Condition Object
  SunExposed,                             !- Sun Exposure
  WindExposed,                            !- Wind Exposure
  ,                                       !- View Factor to Ground
  ,                                       !- Number of Vertices
  0, 0, 2.4384,                           !- X,Y,Z Vertex 1 {m}
  0, 0, 0,                                !- X,Y,Z Vertex 2 {m}
  0, -12.9315688143396, 0,                !- X,Y,Z Vertex 3 {m}
  0, -12.9315688143396, 2.4384;           !- X,Y,Z Vertex 4 {m}

OS:Surface,
  {7212574c-4224-4b88-a1b4-6d9a07aae824}, !- Handle
  Surface 3,                              !- Name
  Wall,                                   !- Surface Type
  ,                                       !- Construction Name
  {ed58844b-8e17-4fdf-b1a2-1f98eb8dd001}, !- Space Name
  Outdoors,                               !- Outside Boundary Condition
  ,                                       !- Outside Boundary Condition Object
  SunExposed,                             !- Sun Exposure
  WindExposed,                            !- Wind Exposure
  ,                                       !- View Factor to Ground
  ,                                       !- Number of Vertices
  6.46578440716979, 0, 2.4384,            !- X,Y,Z Vertex 1 {m}
  6.46578440716979, 0, 0,                 !- X,Y,Z Vertex 2 {m}
  0, 0, 0,                                !- X,Y,Z Vertex 3 {m}
  0, 0, 2.4384;                           !- X,Y,Z Vertex 4 {m}

OS:Surface,
  {a6610ff1-90e5-4149-bf45-3778f10db561}, !- Handle
  Surface 4,                              !- Name
  Wall,                                   !- Surface Type
  ,                                       !- Construction Name
  {ed58844b-8e17-4fdf-b1a2-1f98eb8dd001}, !- Space Name
  Surface,                                !- Outside Boundary Condition
  {4880a5f4-3a31-40f4-aa97-76189f4e5479}, !- Outside Boundary Condition Object
  NoSun,                                  !- Sun Exposure
  NoWind,                                 !- Wind Exposure
  ,                                       !- View Factor to Ground
  ,                                       !- Number of Vertices
  6.46578440716979, -12.9315688143396, 2.4384, !- X,Y,Z Vertex 1 {m}
  6.46578440716979, -12.9315688143396, 0, !- X,Y,Z Vertex 2 {m}
  6.46578440716979, 0, 0,                 !- X,Y,Z Vertex 3 {m}
  6.46578440716979, 0, 2.4384;            !- X,Y,Z Vertex 4 {m}

OS:Surface,
  {60d5e00e-90ab-4a69-ade3-5a57f77b3be0}, !- Handle
  Surface 5,                              !- Name
  Wall,                                   !- Surface Type
  ,                                       !- Construction Name
  {ed58844b-8e17-4fdf-b1a2-1f98eb8dd001}, !- Space Name
  Outdoors,                               !- Outside Boundary Condition
  ,                                       !- Outside Boundary Condition Object
  SunExposed,                             !- Sun Exposure
  WindExposed,                            !- Wind Exposure
  ,                                       !- View Factor to Ground
  ,                                       !- Number of Vertices
  0, -12.9315688143396, 2.4384,           !- X,Y,Z Vertex 1 {m}
  0, -12.9315688143396, 0,                !- X,Y,Z Vertex 2 {m}
  6.46578440716979, -12.9315688143396, 0, !- X,Y,Z Vertex 3 {m}
  6.46578440716979, -12.9315688143396, 2.4384; !- X,Y,Z Vertex 4 {m}

OS:Surface,
  {cd066276-a9b2-4e4c-8bab-a12f3391ad2b}, !- Handle
  Surface 6,                              !- Name
  RoofCeiling,                            !- Surface Type
  ,                                       !- Construction Name
  {ed58844b-8e17-4fdf-b1a2-1f98eb8dd001}, !- Space Name
  Surface,                                !- Outside Boundary Condition
  {c82a8ea7-5b67-4087-959e-bf07a5d1fdf2}, !- Outside Boundary Condition Object
  NoSun,                                  !- Sun Exposure
  NoWind,                                 !- Wind Exposure
  ,                                       !- View Factor to Ground
  ,                                       !- Number of Vertices
  6.46578440716979, -12.9315688143396, 2.4384, !- X,Y,Z Vertex 1 {m}
  6.46578440716979, 0, 2.4384,            !- X,Y,Z Vertex 2 {m}
  0, 0, 2.4384,                           !- X,Y,Z Vertex 3 {m}
  0, -12.9315688143396, 2.4384;           !- X,Y,Z Vertex 4 {m}

OS:SpaceType,
  {7c295dd2-bdcb-4e74-8c37-0858c5c6799d}, !- Handle
  Space Type 1,                           !- Name
  ,                                       !- Default Construction Set Name
  ,                                       !- Default Schedule Set Name
  ,                                       !- Group Rendering Name
  ,                                       !- Design Specification Outdoor Air Object Name
  ,                                       !- Standards Template
  ,                                       !- Standards Building Type
  living;                                 !- Standards Space Type

OS:ThermalZone,
  {aad7f0ae-eaad-493a-83f0-33a90505ff73}, !- Handle
  living zone|unit 2,                     !- Name
  ,                                       !- Multiplier
  ,                                       !- Ceiling Height {m}
  ,                                       !- Volume {m3}
  ,                                       !- Floor Area {m2}
  ,                                       !- Zone Inside Convection Algorithm
  ,                                       !- Zone Outside Convection Algorithm
  ,                                       !- Zone Conditioning Equipment List Name
  {975a6f48-82d4-4254-af8c-98580cc5858f}, !- Zone Air Inlet Port List
  {b6dd85e9-7bd1-4a53-a299-b38e4518fc1e}, !- Zone Air Exhaust Port List
  {5fc2ff46-ab7e-41ee-996e-fd0e45798bb8}, !- Zone Air Node Name
  {70946499-df8b-4e8d-9abc-55842462e467}, !- Zone Return Air Port List
  ,                                       !- Primary Daylighting Control Name
  ,                                       !- Fraction of Zone Controlled by Primary Daylighting Control
  ,                                       !- Secondary Daylighting Control Name
  ,                                       !- Fraction of Zone Controlled by Secondary Daylighting Control
  ,                                       !- Illuminance Map Name
  ,                                       !- Group Rendering Name
  {e9de8828-752b-4df7-acf1-f1c91231120d}, !- Thermostat Name
  No;                                     !- Use Ideal Air Loads

OS:Node,
  {232a4222-ee31-4bfe-9b12-a7af01b55946}, !- Handle
  Node 2,                                 !- Name
  {5fc2ff46-ab7e-41ee-996e-fd0e45798bb8}, !- Inlet Port
  ;                                       !- Outlet Port

OS:Connection,
  {5fc2ff46-ab7e-41ee-996e-fd0e45798bb8}, !- Handle
  {c893e9fc-f0c9-4591-a882-4ebbf4d7ec83}, !- Name
  {aad7f0ae-eaad-493a-83f0-33a90505ff73}, !- Source Object
  11,                                     !- Outlet Port
  {232a4222-ee31-4bfe-9b12-a7af01b55946}, !- Target Object
  2;                                      !- Inlet Port

OS:PortList,
  {975a6f48-82d4-4254-af8c-98580cc5858f}, !- Handle
  {5f921e28-de21-484c-a756-a264510e204f}, !- Name
  {aad7f0ae-eaad-493a-83f0-33a90505ff73}, !- HVAC Component
  {5240f149-075a-4ac2-aef1-5c5fbece949d}; !- Port 1

OS:PortList,
  {b6dd85e9-7bd1-4a53-a299-b38e4518fc1e}, !- Handle
  {26bc3fc3-ea1b-4096-ba88-bf5e669c116e}, !- Name
  {aad7f0ae-eaad-493a-83f0-33a90505ff73}, !- HVAC Component
  {928c3ad0-1ec1-4b73-a503-52353a2e3fd5}; !- Port 1

OS:PortList,
  {70946499-df8b-4e8d-9abc-55842462e467}, !- Handle
  {4ed395b0-1785-4af8-af2a-c57086318425}, !- Name
  {aad7f0ae-eaad-493a-83f0-33a90505ff73}; !- HVAC Component

OS:Sizing:Zone,
  {61a467e8-930a-4971-8d53-930025558837}, !- Handle
  {aad7f0ae-eaad-493a-83f0-33a90505ff73}, !- Zone or ZoneList Name
  SupplyAirTemperature,                   !- Zone Cooling Design Supply Air Temperature Input Method
  12.7777777777778,                       !- Zone Cooling Design Supply Air Temperature {C}
  11.11,                                  !- Zone Cooling Design Supply Air Temperature Difference {deltaC}
  SupplyAirTemperature,                   !- Zone Heating Design Supply Air Temperature Input Method
  40.0000000000001,                       !- Zone Heating Design Supply Air Temperature {C}
  11.11,                                  !- Zone Heating Design Supply Air Temperature Difference {deltaC}
  0.0085,                                 !- Zone Cooling Design Supply Air Humidity Ratio {kg-H2O/kg-air}
  0.008,                                  !- Zone Heating Design Supply Air Humidity Ratio {kg-H2O/kg-air}
  ,                                       !- Zone Heating Sizing Factor
  ,                                       !- Zone Cooling Sizing Factor
  DesignDay,                              !- Cooling Design Air Flow Method
  ,                                       !- Cooling Design Air Flow Rate {m3/s}
  ,                                       !- Cooling Minimum Air Flow per Zone Floor Area {m3/s-m2}
  ,                                       !- Cooling Minimum Air Flow {m3/s}
  ,                                       !- Cooling Minimum Air Flow Fraction
  DesignDay,                              !- Heating Design Air Flow Method
  ,                                       !- Heating Design Air Flow Rate {m3/s}
  ,                                       !- Heating Maximum Air Flow per Zone Floor Area {m3/s-m2}
  ,                                       !- Heating Maximum Air Flow {m3/s}
  ,                                       !- Heating Maximum Air Flow Fraction
  ,                                       !- Design Zone Air Distribution Effectiveness in Cooling Mode
  ,                                       !- Design Zone Air Distribution Effectiveness in Heating Mode
  No,                                     !- Account for Dedicated Outdoor Air System
  NeutralSupplyAir,                       !- Dedicated Outdoor Air System Control Strategy
  autosize,                               !- Dedicated Outdoor Air Low Setpoint Temperature for Design {C}
  autosize;                               !- Dedicated Outdoor Air High Setpoint Temperature for Design {C}

OS:ZoneHVAC:EquipmentList,
  {4b10c69b-4429-4656-9e7e-7e7709ae9eef}, !- Handle
  Zone HVAC Equipment List 2,             !- Name
  {aad7f0ae-eaad-493a-83f0-33a90505ff73}, !- Thermal Zone
  ,                                       !- Load Distribution Scheme
  {8c63053e-7284-4001-9c06-8e4e1c6ebf82}, !- Zone Equipment 1
  1,                                      !- Zone Equipment Cooling Sequence 1
  1,                                      !- Zone Equipment Heating or No-Load Sequence 1
  ,                                       !- Zone Equipment Sequential Cooling Fraction Schedule Name 1
  ;                                       !- Zone Equipment Sequential Heating Fraction Schedule Name 1

OS:Space,
  {a6905fbc-7a2c-4228-83bc-55312106c1a0}, !- Handle
  living space|unit 2|story 1,            !- Name
  {7c295dd2-bdcb-4e74-8c37-0858c5c6799d}, !- Space Type Name
  ,                                       !- Default Construction Set Name
  ,                                       !- Default Schedule Set Name
  -0,                                     !- Direction of Relative North {deg}
  0,                                      !- X Origin {m}
  0,                                      !- Y Origin {m}
  0,                                      !- Z Origin {m}
  ,                                       !- Building Story Name
  {aad7f0ae-eaad-493a-83f0-33a90505ff73}, !- Thermal Zone Name
  ,                                       !- Part of Total Floor Area
  ,                                       !- Design Specification Outdoor Air Object Name
  {cf244558-f402-4d15-adaa-f8ef00428351}; !- Building Unit Name

OS:Surface,
  {657d5f76-7349-4cd0-9646-9030274c853f}, !- Handle
  Surface 12,                             !- Name
  RoofCeiling,                            !- Surface Type
  ,                                       !- Construction Name
  {a6905fbc-7a2c-4228-83bc-55312106c1a0}, !- Space Name
  Surface,                                !- Outside Boundary Condition
  {b8336ce3-2a2c-46a8-afc2-77715e49d0cf}, !- Outside Boundary Condition Object
  NoSun,                                  !- Sun Exposure
  NoWind,                                 !- Wind Exposure
  ,                                       !- View Factor to Ground
  ,                                       !- Number of Vertices
  12.9315688143396, -12.9315688143396, 2.4384, !- X,Y,Z Vertex 1 {m}
  12.9315688143396, 0, 2.4384,            !- X,Y,Z Vertex 2 {m}
  6.46578440716979, 0, 2.4384,            !- X,Y,Z Vertex 3 {m}
  6.46578440716979, -12.9315688143396, 2.4384; !- X,Y,Z Vertex 4 {m}

OS:Surface,
  {a007dd4a-9604-4adb-a1db-37b3f2954544}, !- Handle
  Surface 13,                             !- Name
  Floor,                                  !- Surface Type
  ,                                       !- Construction Name
  {a6905fbc-7a2c-4228-83bc-55312106c1a0}, !- Space Name
  Foundation,                             !- Outside Boundary Condition
  ,                                       !- Outside Boundary Condition Object
  NoSun,                                  !- Sun Exposure
  NoWind,                                 !- Wind Exposure
  ,                                       !- View Factor to Ground
  ,                                       !- Number of Vertices
  6.46578440716979, -12.9315688143396, 0, !- X,Y,Z Vertex 1 {m}
  6.46578440716979, 0, 0,                 !- X,Y,Z Vertex 2 {m}
  12.9315688143396, 0, 0,                 !- X,Y,Z Vertex 3 {m}
  12.9315688143396, -12.9315688143396, 0; !- X,Y,Z Vertex 4 {m}

OS:Surface,
  {b56caf4b-25b8-4485-b388-ed027bb0b06e}, !- Handle
  Surface 14,                             !- Name
  Wall,                                   !- Surface Type
  ,                                       !- Construction Name
  {a6905fbc-7a2c-4228-83bc-55312106c1a0}, !- Space Name
  Outdoors,                               !- Outside Boundary Condition
  ,                                       !- Outside Boundary Condition Object
  SunExposed,                             !- Sun Exposure
  WindExposed,                            !- Wind Exposure
  ,                                       !- View Factor to Ground
  ,                                       !- Number of Vertices
  12.9315688143396, 0, 2.4384,            !- X,Y,Z Vertex 1 {m}
  12.9315688143396, 0, 0,                 !- X,Y,Z Vertex 2 {m}
  6.46578440716979, 0, 0,                 !- X,Y,Z Vertex 3 {m}
  6.46578440716979, 0, 2.4384;            !- X,Y,Z Vertex 4 {m}

OS:Surface,
  {2d27fa78-7502-4de8-82de-ae6aaf5f36bd}, !- Handle
  Surface 15,                             !- Name
  Wall,                                   !- Surface Type
  ,                                       !- Construction Name
  {a6905fbc-7a2c-4228-83bc-55312106c1a0}, !- Space Name
  Surface,                                !- Outside Boundary Condition
  {2ac941cf-ba1f-4635-9bbd-7c5fe4df871a}, !- Outside Boundary Condition Object
  NoSun,                                  !- Sun Exposure
  NoWind,                                 !- Wind Exposure
  ,                                       !- View Factor to Ground
  ,                                       !- Number of Vertices
  12.9315688143396, -12.9315688143396, 2.4384, !- X,Y,Z Vertex 1 {m}
  12.9315688143396, -12.9315688143396, 0, !- X,Y,Z Vertex 2 {m}
  12.9315688143396, 0, 0,                 !- X,Y,Z Vertex 3 {m}
  12.9315688143396, 0, 2.4384;            !- X,Y,Z Vertex 4 {m}

OS:Surface,
  {4880a5f4-3a31-40f4-aa97-76189f4e5479}, !- Handle
  Surface 16,                             !- Name
  Wall,                                   !- Surface Type
  ,                                       !- Construction Name
  {a6905fbc-7a2c-4228-83bc-55312106c1a0}, !- Space Name
  Surface,                                !- Outside Boundary Condition
  {a6610ff1-90e5-4149-bf45-3778f10db561}, !- Outside Boundary Condition Object
  NoSun,                                  !- Sun Exposure
  NoWind,                                 !- Wind Exposure
  ,                                       !- View Factor to Ground
  ,                                       !- Number of Vertices
  6.46578440716979, 0, 2.4384,            !- X,Y,Z Vertex 1 {m}
  6.46578440716979, 0, 0,                 !- X,Y,Z Vertex 2 {m}
  6.46578440716979, -12.9315688143396, 0, !- X,Y,Z Vertex 3 {m}
  6.46578440716979, -12.9315688143396, 2.4384; !- X,Y,Z Vertex 4 {m}

OS:Surface,
  {0267a63d-d610-4e4f-a469-9d9709a9e78d}, !- Handle
  Surface 17,                             !- Name
  Wall,                                   !- Surface Type
  ,                                       !- Construction Name
  {a6905fbc-7a2c-4228-83bc-55312106c1a0}, !- Space Name
  Outdoors,                               !- Outside Boundary Condition
  ,                                       !- Outside Boundary Condition Object
  SunExposed,                             !- Sun Exposure
  WindExposed,                            !- Wind Exposure
  ,                                       !- View Factor to Ground
  ,                                       !- Number of Vertices
  6.46578440716979, -12.9315688143396, 2.4384, !- X,Y,Z Vertex 1 {m}
  6.46578440716979, -12.9315688143396, 0, !- X,Y,Z Vertex 2 {m}
  12.9315688143396, -12.9315688143396, 0, !- X,Y,Z Vertex 3 {m}
  12.9315688143396, -12.9315688143396, 2.4384; !- X,Y,Z Vertex 4 {m}

OS:ThermalZone,
  {f21d87e0-fcd8-4016-a613-148a6955e55e}, !- Handle
  living zone|unit 3,                     !- Name
  ,                                       !- Multiplier
  ,                                       !- Ceiling Height {m}
  ,                                       !- Volume {m3}
  ,                                       !- Floor Area {m2}
  ,                                       !- Zone Inside Convection Algorithm
  ,                                       !- Zone Outside Convection Algorithm
  ,                                       !- Zone Conditioning Equipment List Name
  {cb510570-6eb7-46fc-843c-597ba1216034}, !- Zone Air Inlet Port List
  {32b64415-d3a9-4a46-a1a7-fab2871b3aca}, !- Zone Air Exhaust Port List
  {a452e4b6-f232-4b64-b52e-8dd1171931e4}, !- Zone Air Node Name
  {4d3317d5-d8dd-4b95-9c3a-0470ac60140f}, !- Zone Return Air Port List
  ,                                       !- Primary Daylighting Control Name
  ,                                       !- Fraction of Zone Controlled by Primary Daylighting Control
  ,                                       !- Secondary Daylighting Control Name
  ,                                       !- Fraction of Zone Controlled by Secondary Daylighting Control
  ,                                       !- Illuminance Map Name
  ,                                       !- Group Rendering Name
  {072f6e05-61fe-4043-b9aa-7ff06dd3b605}, !- Thermostat Name
  No;                                     !- Use Ideal Air Loads

OS:Node,