!- NOTE: Auto-generated from /test/osw_files/SFA_2story_UB_Furnace_RoomAC_FuelTankWH.osw

OS:Version,
  {24f55901-6fdf-40cd-8848-223e42ebd569}, !- Handle
  2.9.0;                                  !- Version Identifier

OS:WeatherFile,
  {0a7407f0-3faf-4ac5-84b8-3bdbceaa6b09}, !- Handle
  Denver Intl Ap,                         !- City
  CO,                                     !- State Province Region
  USA,                                    !- Country
  TMY3,                                   !- Data Source
  725650,                                 !- WMO Number
  39.83,                                  !- Latitude {deg}
  -104.65,                                !- Longitude {deg}
  -7,                                     !- Time Zone {hr}
  1650,                                   !- Elevation {m}
  file:../weather/USA_CO_Denver.Intl.AP.725650_TMY3.epw, !- Url
  E23378AA;                               !- Checksum

OS:AdditionalProperties,
  {12637008-8756-41f0-b499-88e9742cb173}, !- Handle
  {0a7407f0-3faf-4ac5-84b8-3bdbceaa6b09}, !- Object Name
  EPWHeaderCity,                          !- Feature Name 1
  String,                                 !- Feature Data Type 1
  Denver Intl Ap,                         !- Feature Value 1
  EPWHeaderState,                         !- Feature Name 2
  String,                                 !- Feature Data Type 2
  CO,                                     !- Feature Value 2
  EPWHeaderCountry,                       !- Feature Name 3
  String,                                 !- Feature Data Type 3
  USA,                                    !- Feature Value 3
  EPWHeaderDataSource,                    !- Feature Name 4
  String,                                 !- Feature Data Type 4
  TMY3,                                   !- Feature Value 4
  EPWHeaderStation,                       !- Feature Name 5
  String,                                 !- Feature Data Type 5
  725650,                                 !- Feature Value 5
  EPWHeaderLatitude,                      !- Feature Name 6
  Double,                                 !- Feature Data Type 6
  39.829999999999998,                     !- Feature Value 6
  EPWHeaderLongitude,                     !- Feature Name 7
  Double,                                 !- Feature Data Type 7
  -104.65000000000001,                    !- Feature Value 7
  EPWHeaderTimezone,                      !- Feature Name 8
  Double,                                 !- Feature Data Type 8
  -7,                                     !- Feature Value 8
  EPWHeaderAltitude,                      !- Feature Name 9
  Double,                                 !- Feature Data Type 9
  5413.3858267716532,                     !- Feature Value 9
  EPWHeaderLocalPressure,                 !- Feature Name 10
  Double,                                 !- Feature Data Type 10
  0.81937567683596546,                    !- Feature Value 10
  EPWHeaderRecordsPerHour,                !- Feature Name 11
  Double,                                 !- Feature Data Type 11
  0,                                      !- Feature Value 11
  EPWDataAnnualAvgDrybulb,                !- Feature Name 12
  Double,                                 !- Feature Data Type 12
  51.575616438356228,                     !- Feature Value 12
  EPWDataAnnualMinDrybulb,                !- Feature Name 13
  Double,                                 !- Feature Data Type 13
  -2.9200000000000017,                    !- Feature Value 13
  EPWDataAnnualMaxDrybulb,                !- Feature Name 14
  Double,                                 !- Feature Data Type 14
  104,                                    !- Feature Value 14
  EPWDataCDD50F,                          !- Feature Name 15
  Double,                                 !- Feature Data Type 15
  3072.2925000000005,                     !- Feature Value 15
  EPWDataCDD65F,                          !- Feature Name 16
  Double,                                 !- Feature Data Type 16
  883.62000000000035,                     !- Feature Value 16
  EPWDataHDD50F,                          !- Feature Name 17
  Double,                                 !- Feature Data Type 17
  2497.1925000000001,                     !- Feature Value 17
  EPWDataHDD65F,                          !- Feature Name 18
  Double,                                 !- Feature Data Type 18
  5783.5200000000013,                     !- Feature Value 18
  EPWDataAnnualAvgWindspeed,              !- Feature Name 19
  Double,                                 !- Feature Data Type 19
  3.9165296803649667,                     !- Feature Value 19
  EPWDataMonthlyAvgDrybulbs,              !- Feature Name 20
  String,                                 !- Feature Data Type 20
  33.4191935483871&#4431.90142857142857&#4443.02620967741937&#4442.48624999999999&#4459.877741935483854&#4473.57574999999997&#4472.07975806451608&#4472.70008064516134&#4466.49200000000006&#4450.079112903225806&#4437.218250000000005&#4434.582177419354835, !- Feature Value 20
  EPWDataGroundMonthlyTemps,              !- Feature Name 21
  String,                                 !- Feature Data Type 21
  44.08306285945173&#4440.89570904991865&#4440.64045432632048&#4442.153016571250646&#4448.225111118704206&#4454.268919273837525&#4459.508577937551024&#4462.82777283423508&#4463.10975667174995&#4460.41014950381947&#4455.304105212311526&#4449.445696474514364, !- Feature Value 21
  EPWDataWSF,                             !- Feature Name 22
  Double,                                 !- Feature Data Type 22
  0.58999999999999997,                    !- Feature Value 22
  EPWDataMonthlyAvgDailyHighDrybulbs,     !- Feature Name 23
  String,                                 !- Feature Data Type 23
  47.41032258064516&#4446.58642857142857&#4455.15032258064517&#4453.708&#4472.80193548387098&#4488.67600000000002&#4486.1858064516129&#4485.87225806451613&#4482.082&#4463.18064516129033&#4448.73400000000001&#4448.87935483870968, !- Feature Value 23
  EPWDataMonthlyAvgDailyLowDrybulbs,      !- Feature Name 24
  String,                                 !- Feature Data Type 24
  19.347741935483874&#4419.856428571428573&#4430.316129032258065&#4431.112&#4447.41612903225806&#4457.901999999999994&#4459.063870967741934&#4460.956774193548384&#4452.352000000000004&#4438.41612903225806&#4427.002000000000002&#4423.02903225806451, !- Feature Value 24
  EPWDesignHeatingDrybulb,                !- Feature Name 25
  Double,                                 !- Feature Data Type 25
  12.02,                                  !- Feature Value 25
  EPWDesignHeatingWindspeed,              !- Feature Name 26
  Double,                                 !- Feature Data Type 26
  2.8062500000000004,                     !- Feature Value 26
  EPWDesignCoolingDrybulb,                !- Feature Name 27
  Double,                                 !- Feature Data Type 27
  91.939999999999998,                     !- Feature Value 27
  EPWDesignCoolingWetbulb,                !- Feature Name 28
  Double,                                 !- Feature Data Type 28
  59.95131430195849,                      !- Feature Value 28
  EPWDesignCoolingHumidityRatio,          !- Feature Name 29
  Double,                                 !- Feature Data Type 29
  0.0059161086834698092,                  !- Feature Value 29
  EPWDesignCoolingWindspeed,              !- Feature Name 30
  Double,                                 !- Feature Data Type 30
  3.7999999999999989,                     !- Feature Value 30
  EPWDesignDailyTemperatureRange,         !- Feature Name 31
  Double,                                 !- Feature Data Type 31
  24.915483870967748,                     !- Feature Value 31
  EPWDesignDehumidDrybulb,                !- Feature Name 32
  Double,                                 !- Feature Data Type 32
  67.996785714285721,                     !- Feature Value 32
  EPWDesignDehumidHumidityRatio,          !- Feature Name 33
  Double,                                 !- Feature Data Type 33
  0.012133744170488724,                   !- Feature Value 33
  EPWDesignCoolingDirectNormal,           !- Feature Name 34
  Double,                                 !- Feature Data Type 34
  985,                                    !- Feature Value 34
  EPWDesignCoolingDiffuseHorizontal,      !- Feature Name 35
  Double,                                 !- Feature Data Type 35
  84;                                     !- Feature Value 35

OS:YearDescription,
  {072b17a4-8b11-4fb5-a618-252abd2e6d50}; !- Handle

OS:Site,
  {056d5ce3-ed7f-4346-a2d7-e581f651bb2a}, !- Handle
  Denver Intl Ap_CO_USA,                  !- Name
  39.83,                                  !- Latitude {deg}
  -104.65,                                !- Longitude {deg}
  -7,                                     !- Time Zone {hr}
  1650,                                   !- Elevation {m}
  Suburbs;                                !- Terrain

OS:ClimateZones,
  {5266b252-6e53-495f-8d2f-5a6b8d61f494}, !- Handle
  ,                                       !- Active Institution
  ,                                       !- Active Year
  ,                                       !- Climate Zone Institution Name 1
  ,                                       !- Climate Zone Document Name 1
  ,                                       !- Climate Zone Document Year 1
  ,                                       !- Climate Zone Value 1
  Building America,                       !- Climate Zone Institution Name 2
  ,                                       !- Climate Zone Document Name 2
  0,                                      !- Climate Zone Document Year 2
  Cold;                                   !- Climate Zone Value 2

OS:Site:WaterMainsTemperature,
  {544ff961-eeed-4520-a037-97eb0fd5974c}, !- Handle
  Correlation,                            !- Calculation Method
  ,                                       !- Temperature Schedule Name
  10.8753424657535,                       !- Annual Average Outdoor Air Temperature {C}
  23.1524007936508;                       !- Maximum Difference In Monthly Average Outdoor Air Temperatures {deltaC}

OS:RunPeriodControl:DaylightSavingTime,
  {0fda1212-7918-435b-9c9b-e9c186b27699}, !- Handle
  4/7,                                    !- Start Date
  10/26;                                  !- End Date

OS:Site:GroundTemperature:Deep,
  {7a0d150a-78de-4eaa-81a6-6c722d29e4c6}, !- Handle
  10.8753424657535,                       !- January Deep Ground Temperature {C}
  10.8753424657535,                       !- February Deep Ground Temperature {C}
  10.8753424657535,                       !- March Deep Ground Temperature {C}
  10.8753424657535,                       !- April Deep Ground Temperature {C}
  10.8753424657535,                       !- May Deep Ground Temperature {C}
  10.8753424657535,                       !- June Deep Ground Temperature {C}
  10.8753424657535,                       !- July Deep Ground Temperature {C}
  10.8753424657535,                       !- August Deep Ground Temperature {C}
  10.8753424657535,                       !- September Deep Ground Temperature {C}
  10.8753424657535,                       !- October Deep Ground Temperature {C}
  10.8753424657535,                       !- November Deep Ground Temperature {C}
  10.8753424657535;                       !- December Deep Ground Temperature {C}

OS:ThermalZone,
  {331f1239-fc91-4536-8418-6bcace9c0b7b}, !- Handle
  living zone,                            !- Name
  ,                                       !- Multiplier
  ,                                       !- Ceiling Height {m}
  ,                                       !- Volume {m3}
  ,                                       !- Floor Area {m2}
  ,                                       !- Zone Inside Convection Algorithm
  ,                                       !- Zone Outside Convection Algorithm
  ,                                       !- Zone Conditioning Equipment List Name
  {6b9297a1-39fd-44f6-87f6-65cf04b0c91d}, !- Zone Air Inlet Port List
  {850ab948-cc20-4bc0-bef2-9c4e9812dcd9}, !- Zone Air Exhaust Port List
  {849175a6-6a92-4079-a323-86591ef56203}, !- Zone Air Node Name
  {dbbeaeba-a023-4a71-9a9f-3d61a646de9e}, !- Zone Return Air Port List
  ,                                       !- Primary Daylighting Control Name
  ,                                       !- Fraction of Zone Controlled by Primary Daylighting Control
  ,                                       !- Secondary Daylighting Control Name
  ,                                       !- Fraction of Zone Controlled by Secondary Daylighting Control
  ,                                       !- Illuminance Map Name
  ,                                       !- Group Rendering Name
  {ceba48c9-1384-4fe4-91ff-66c63aabe6fa}, !- Thermostat Name
  No;                                     !- Use Ideal Air Loads

OS:Node,
  {812841ef-a075-4f5e-a7fc-4076eff652c4}, !- Handle
  Node 1,                                 !- Name
  {849175a6-6a92-4079-a323-86591ef56203}, !- Inlet Port
  ;                                       !- Outlet Port

OS:Connection,
  {849175a6-6a92-4079-a323-86591ef56203}, !- Handle
  {18ea1e4a-f8da-4268-821c-47d127709c5f}, !- Name
  {331f1239-fc91-4536-8418-6bcace9c0b7b}, !- Source Object
  11,                                     !- Outlet Port
  {812841ef-a075-4f5e-a7fc-4076eff652c4}, !- Target Object
  2;                                      !- Inlet Port

OS:PortList,
  {6b9297a1-39fd-44f6-87f6-65cf04b0c91d}, !- Handle
  {786ff4c3-a639-4994-866e-55545f8e0bef}, !- Name
  {331f1239-fc91-4536-8418-6bcace9c0b7b}, !- HVAC Component
  {4de38345-45f9-46c5-875e-d7db15cde11e}, !- Port 1
  {8ae1b7f0-e980-44d9-92ee-aef0cf67c524}; !- Port 2

OS:PortList,
  {850ab948-cc20-4bc0-bef2-9c4e9812dcd9}, !- Handle
  {ae9a6173-ae9e-4db5-8cf4-4411f07801fc}, !- Name
  {331f1239-fc91-4536-8418-6bcace9c0b7b}, !- HVAC Component
  {47bc7715-ff76-4fc5-9259-7919f2e6fa1c}; !- Port 1

OS:PortList,
  {dbbeaeba-a023-4a71-9a9f-3d61a646de9e}, !- Handle
  {16deade8-8b7a-4ac8-b717-59091f65ea7f}, !- Name
  {331f1239-fc91-4536-8418-6bcace9c0b7b}, !- HVAC Component
  {8014bc30-0a94-40cf-98f8-cf7cba4604b1}; !- Port 1

OS:Sizing:Zone,
  {0f954acb-8622-4374-b9ba-b41e660409bd}, !- Handle
  {331f1239-fc91-4536-8418-6bcace9c0b7b}, !- Zone or ZoneList Name
  SupplyAirTemperature,                   !- Zone Cooling Design Supply Air Temperature Input Method
  14,                                     !- Zone Cooling Design Supply Air Temperature {C}
  11.11,                                  !- Zone Cooling Design Supply Air Temperature Difference {deltaC}
  SupplyAirTemperature,                   !- Zone Heating Design Supply Air Temperature Input Method
  40,                                     !- Zone Heating Design Supply Air Temperature {C}
  11.11,                                  !- Zone Heating Design Supply Air Temperature Difference {deltaC}
  0.0085,                                 !- Zone Cooling Design Supply Air Humidity Ratio {kg-H2O/kg-air}
  0.008,                                  !- Zone Heating Design Supply Air Humidity Ratio {kg-H2O/kg-air}
  ,                                       !- Zone Heating Sizing Factor
  ,                                       !- Zone Cooling Sizing Factor
  DesignDay,                              !- Cooling Design Air Flow Method
  ,                                       !- Cooling Design Air Flow Rate {m3/s}
  ,                                       !- Cooling Minimum Air Flow per Zone Floor Area {m3/s-m2}
  ,                                       !- Cooling Minimum Air Flow {m3/s}
  ,                                       !- Cooling Minimum Air Flow Fraction
  DesignDay,                              !- Heating Design Air Flow Method
  ,                                       !- Heating Design Air Flow Rate {m3/s}
  ,                                       !- Heating Maximum Air Flow per Zone Floor Area {m3/s-m2}
  ,                                       !- Heating Maximum Air Flow {m3/s}
  ,                                       !- Heating Maximum Air Flow Fraction
  ,                                       !- Design Zone Air Distribution Effectiveness in Cooling Mode
  ,                                       !- Design Zone Air Distribution Effectiveness in Heating Mode
  No,                                     !- Account for Dedicated Outdoor Air System
  NeutralSupplyAir,                       !- Dedicated Outdoor Air System Control Strategy
  autosize,                               !- Dedicated Outdoor Air Low Setpoint Temperature for Design {C}
  autosize;                               !- Dedicated Outdoor Air High Setpoint Temperature for Design {C}

OS:ZoneHVAC:EquipmentList,
  {336e43d8-d937-4ab5-be3c-b7b02ad4e97d}, !- Handle
  Zone HVAC Equipment List 1,             !- Name
  {331f1239-fc91-4536-8418-6bcace9c0b7b}, !- Thermal Zone
  SequentialLoad,                         !- Load Distribution Scheme
  {747212f9-428e-438f-9aa2-f6b556e41995}, !- Zone Equipment 1
  2,                                      !- Zone Equipment Cooling Sequence 1
  2,                                      !- Zone Equipment Heating or No-Load Sequence 1
  ,                                       !- Zone Equipment Sequential Cooling Fraction Schedule Name 1
  ,                                       !- Zone Equipment Sequential Heating Fraction Schedule Name 1
  {2782ade7-ad85-4c61-a655-75ca8cc64039}, !- Zone Equipment 2
  1,                                      !- Zone Equipment Cooling Sequence 2
  1,                                      !- Zone Equipment Heating or No-Load Sequence 2
  ,                                       !- Zone Equipment Sequential Cooling Fraction Schedule Name 2
  ;                                       !- Zone Equipment Sequential Heating Fraction Schedule Name 2

OS:Space,
  {bd5e7699-c033-49f9-a070-516daaf4553b}, !- Handle
  living space,                           !- Name
  {e7fe5ff6-114b-417b-b583-1573e3a14829}, !- Space Type Name
  ,                                       !- Default Construction Set Name
  ,                                       !- Default Schedule Set Name
  ,                                       !- Direction of Relative North {deg}
  ,                                       !- X Origin {m}
  ,                                       !- Y Origin {m}
  ,                                       !- Z Origin {m}
  ,                                       !- Building Story Name
  {331f1239-fc91-4536-8418-6bcace9c0b7b}, !- Thermal Zone Name
  ,                                       !- Part of Total Floor Area
  ,                                       !- Design Specification Outdoor Air Object Name
  {c161b3cd-0c8a-4119-a39f-a05eafdca908}; !- Building Unit Name

OS:Surface,
  {a2e62844-efd8-4037-813c-40567c74bbd3}, !- Handle
  Surface 1,                              !- Name
  Floor,                                  !- Surface Type
  {e2ac5afb-0c7e-4161-a524-6ba56bc92210}, !- Construction Name
  {bd5e7699-c033-49f9-a070-516daaf4553b}, !- Space Name
  Surface,                                !- Outside Boundary Condition
  {c9fbaf68-e2e1-451d-8231-1b579cb7cea0}, !- Outside Boundary Condition Object
  NoSun,                                  !- Sun Exposure
  NoWind,                                 !- Wind Exposure
  ,                                       !- View Factor to Ground
  ,                                       !- Number of Vertices
  0, -6.46578440716979, 0,                !- X,Y,Z Vertex 1 {m}
  0, 0, 0,                                !- X,Y,Z Vertex 2 {m}
  3.59210244842766, 0, 0,                 !- X,Y,Z Vertex 3 {m}
  3.59210244842766, -6.46578440716979, 0; !- X,Y,Z Vertex 4 {m}

OS:Surface,
  {64390826-ed08-4091-8283-c70efaa073cf}, !- Handle
  Surface 2,                              !- Name
  Wall,                                   !- Surface Type
  {4c3dfbc5-a046-4d6b-ae90-0a62dabf37d4}, !- Construction Name
  {bd5e7699-c033-49f9-a070-516daaf4553b}, !- Space Name
  Outdoors,                               !- Outside Boundary Condition
  ,                                       !- Outside Boundary Condition Object
  SunExposed,                             !- Sun Exposure
  WindExposed,                            !- Wind Exposure
  ,                                       !- View Factor to Ground
  ,                                       !- Number of Vertices
  0, 0, 2.4384,                           !- X,Y,Z Vertex 1 {m}
  0, 0, 0,                                !- X,Y,Z Vertex 2 {m}
  0, -6.46578440716979, 0,                !- X,Y,Z Vertex 3 {m}
  0, -6.46578440716979, 2.4384;           !- X,Y,Z Vertex 4 {m}

OS:Surface,
  {c01ca03e-87c1-42f8-8281-8ea412d1ff6f}, !- Handle
  Surface 3,                              !- Name
  Wall,                                   !- Surface Type
  {4c3dfbc5-a046-4d6b-ae90-0a62dabf37d4}, !- Construction Name
  {bd5e7699-c033-49f9-a070-516daaf4553b}, !- Space Name
  Outdoors,                               !- Outside Boundary Condition
  ,                                       !- Outside Boundary Condition Object
  SunExposed,                             !- Sun Exposure
  WindExposed,                            !- Wind Exposure
  ,                                       !- View Factor to Ground
  ,                                       !- Number of Vertices
  3.59210244842766, 0, 2.4384,            !- X,Y,Z Vertex 1 {m}
  3.59210244842766, 0, 0,                 !- X,Y,Z Vertex 2 {m}
  0, 0, 0,                                !- X,Y,Z Vertex 3 {m}
  0, 0, 2.4384;                           !- X,Y,Z Vertex 4 {m}

OS:Surface,
  {c438e095-a691-4400-9cf7-52c1dc36f0d1}, !- Handle
  Surface 4,                              !- Name
  Wall,                                   !- Surface Type
  {b363a368-133f-47f9-9efa-55d68ad00e8b}, !- Construction Name
  {bd5e7699-c033-49f9-a070-516daaf4553b}, !- Space Name
  Surface,                                !- Outside Boundary Condition
  {55efc1af-b409-4b53-a425-fc2fc6cc2d08}, !- Outside Boundary Condition Object
  NoSun,                                  !- Sun Exposure
  NoWind,                                 !- Wind Exposure
  ,                                       !- View Factor to Ground
  ,                                       !- Number of Vertices
  3.59210244842766, -6.46578440716979, 2.4384, !- X,Y,Z Vertex 1 {m}
  3.59210244842766, -6.46578440716979, 0, !- X,Y,Z Vertex 2 {m}
  3.59210244842766, 0, 0,                 !- X,Y,Z Vertex 3 {m}
  3.59210244842766, 0, 2.4384;            !- X,Y,Z Vertex 4 {m}

OS:Surface,
  {93d0d051-3fcb-4112-924d-8ff7a32aeff2}, !- Handle
  Surface 5,                              !- Name
  Wall,                                   !- Surface Type
  {4c3dfbc5-a046-4d6b-ae90-0a62dabf37d4}, !- Construction Name
  {bd5e7699-c033-49f9-a070-516daaf4553b}, !- Space Name
  Outdoors,                               !- Outside Boundary Condition
  ,                                       !- Outside Boundary Condition Object
  SunExposed,                             !- Sun Exposure
  WindExposed,                            !- Wind Exposure
  ,                                       !- View Factor to Ground
  ,                                       !- Number of Vertices
  3.59210244842766, -6.46578440716979, 0, !- X,Y,Z Vertex 1 {m}
  3.59210244842766, -6.46578440716979, 2.4384, !- X,Y,Z Vertex 2 {m}
  1.04865714285714, -6.46578440716979, 2.4384, !- X,Y,Z Vertex 3 {m}
  1.04865714285714, -6.46578440716979, 0; !- X,Y,Z Vertex 4 {m}

OS:Surface,
  {967b64fc-d168-4291-bb48-cda83e5b4ccb}, !- Handle
  Surface 6,                              !- Name
  RoofCeiling,                            !- Surface Type
  {4096b758-0b3f-405b-b37d-db660ca03bff}, !- Construction Name
  {bd5e7699-c033-49f9-a070-516daaf4553b}, !- Space Name
  Surface,                                !- Outside Boundary Condition
  {0827e284-89e1-4539-ba9c-2a4bdb7886ce}, !- Outside Boundary Condition Object
  NoSun,                                  !- Sun Exposure
  NoWind,                                 !- Wind Exposure
  ,                                       !- View Factor to Ground
  ,                                       !- Number of Vertices
  3.59210244842766, -6.46578440716979, 2.4384, !- X,Y,Z Vertex 1 {m}
  3.59210244842766, 0, 2.4384,            !- X,Y,Z Vertex 2 {m}
  0, 0, 2.4384,                           !- X,Y,Z Vertex 3 {m}
  0, -6.46578440716979, 2.4384;           !- X,Y,Z Vertex 4 {m}

OS:SpaceType,
  {e7fe5ff6-114b-417b-b583-1573e3a14829}, !- Handle
  Space Type 1,                           !- Name
  ,                                       !- Default Construction Set Name
  ,                                       !- Default Schedule Set Name
  ,                                       !- Group Rendering Name
  ,                                       !- Design Specification Outdoor Air Object Name
  ,                                       !- Standards Template
  ,                                       !- Standards Building Type
  living;                                 !- Standards Space Type

OS:Space,
  {7eb37d2c-5c9d-4d77-87d4-8a4cbc21c843}, !- Handle
  living space|story 2,                   !- Name
  {e7fe5ff6-114b-417b-b583-1573e3a14829}, !- Space Type Name
  ,                                       !- Default Construction Set Name
  ,                                       !- Default Schedule Set Name
  -0,                                     !- Direction of Relative North {deg}
  0,                                      !- X Origin {m}
  0,                                      !- Y Origin {m}
  2.4384,                                 !- Z Origin {m}
  ,                                       !- Building Story Name
  {331f1239-fc91-4536-8418-6bcace9c0b7b}, !- Thermal Zone Name
  ,                                       !- Part of Total Floor Area
  ,                                       !- Design Specification Outdoor Air Object Name
  {c161b3cd-0c8a-4119-a39f-a05eafdca908}; !- Building Unit Name

OS:Surface,
  {0918f0bc-66f5-44db-ab5e-ca3e1ce588bb}, !- Handle
  Surface 7,                              !- Name
  Wall,                                   !- Surface Type
  {b363a368-133f-47f9-9efa-55d68ad00e8b}, !- Construction Name
  {7eb37d2c-5c9d-4d77-87d4-8a4cbc21c843}, !- Space Name
  Surface,                                !- Outside Boundary Condition
  {18102b7d-e997-429a-ac1b-8f57a36684ee}, !- Outside Boundary Condition Object
  NoSun,                                  !- Sun Exposure
  NoWind,                                 !- Wind Exposure
  ,                                       !- View Factor to Ground
  ,                                       !- Number of Vertices
  3.59210244842766, -6.46578440716979, 2.4384, !- X,Y,Z Vertex 1 {m}
  3.59210244842766, -6.46578440716979, 0, !- X,Y,Z Vertex 2 {m}
  3.59210244842766, 0, 0,                 !- X,Y,Z Vertex 3 {m}
  3.59210244842766, 0, 2.4384;            !- X,Y,Z Vertex 4 {m}

OS:Surface,
  {0827e284-89e1-4539-ba9c-2a4bdb7886ce}, !- Handle
  Surface 8,                              !- Name
  Floor,                                  !- Surface Type
  {73af1b02-f6dc-4472-a06e-22948dd00c1c}, !- Construction Name
  {7eb37d2c-5c9d-4d77-87d4-8a4cbc21c843}, !- Space Name
  Surface,                                !- Outside Boundary Condition
  {967b64fc-d168-4291-bb48-cda83e5b4ccb}, !- Outside Boundary Condition Object
  NoSun,                                  !- Sun Exposure
  NoWind,                                 !- Wind Exposure
  ,                                       !- View Factor to Ground
  ,                                       !- Number of Vertices
  0, -6.46578440716979, 0,                !- X,Y,Z Vertex 1 {m}
  0, 0, 0,                                !- X,Y,Z Vertex 2 {m}
  3.59210244842766, 0, 0,                 !- X,Y,Z Vertex 3 {m}
  3.59210244842766, -6.46578440716979, 0; !- X,Y,Z Vertex 4 {m}

OS:Surface,
  {cf9481eb-00ba-492f-b853-35066ccfee2d}, !- Handle
  Surface 9,                              !- Name
  Wall,                                   !- Surface Type
  {4c3dfbc5-a046-4d6b-ae90-0a62dabf37d4}, !- Construction Name
  {7eb37d2c-5c9d-4d77-87d4-8a4cbc21c843}, !- Space Name
  Outdoors,                               !- Outside Boundary Condition
  ,                                       !- Outside Boundary Condition Object
  SunExposed,                             !- Sun Exposure
  WindExposed,                            !- Wind Exposure
  ,                                       !- View Factor to Ground
  ,                                       !- Number of Vertices
  0, -6.46578440716979, 2.4384,           !- X,Y,Z Vertex 1 {m}
  0, -6.46578440716979, 0,                !- X,Y,Z Vertex 2 {m}
  3.59210244842766, -6.46578440716979, 0, !- X,Y,Z Vertex 3 {m}
  3.59210244842766, -6.46578440716979, 2.4384; !- X,Y,Z Vertex 4 {m}

OS:Surface,
  {e7c79717-f774-4e06-8187-cf00b8537f0d}, !- Handle
  Surface 10,                             !- Name
  Wall,                                   !- Surface Type
  {4c3dfbc5-a046-4d6b-ae90-0a62dabf37d4}, !- Construction Name
  {7eb37d2c-5c9d-4d77-87d4-8a4cbc21c843}, !- Space Name
  Outdoors,                               !- Outside Boundary Condition
  ,                                       !- Outside Boundary Condition Object
  SunExposed,                             !- Sun Exposure
  WindExposed,                            !- Wind Exposure
  ,                                       !- View Factor to Ground
  ,                                       !- Number of Vertices
  3.59210244842766, 0, 2.4384,            !- X,Y,Z Vertex 1 {m}
  3.59210244842766, 0, 0,                 !- X,Y,Z Vertex 2 {m}
  0, 0, 0,                                !- X,Y,Z Vertex 3 {m}
  0, 0, 2.4384;                           !- X,Y,Z Vertex 4 {m}

OS:Surface,
  {79e45f9b-406c-4d67-aca0-00960b7f2d0b}, !- Handle
  Surface 11,                             !- Name