!- NOTE: Auto-generated from /test/osw_files/SFA_2story_UB_ASHP2_HPWH.osw

OS:Version,
  {56e975fb-6cb6-4c8b-a1c4-2689688c4fca}, !- Handle
  2.8.0;                                  !- Version Identifier

OS:WeatherFile,
  {e1922d8f-d080-4950-9063-fd7efc01d2fa}, !- Handle
  Denver Intl Ap,                         !- City
  CO,                                     !- State Province Region
  USA,                                    !- Country
  TMY3,                                   !- Data Source
  725650,                                 !- WMO Number
  39.83,                                  !- Latitude {deg}
  -104.65,                                !- Longitude {deg}
  -7,                                     !- Time Zone {hr}
  1650,                                   !- Elevation {m}
  file:../weather/USA_CO_Denver.Intl.AP.725650_TMY3.epw, !- Url
  E23378AA;                               !- Checksum

OS:AdditionalProperties,
  {3dbd1361-e85e-4b49-a2fe-198d65d61074}, !- Handle
  {e1922d8f-d080-4950-9063-fd7efc01d2fa}, !- Object Name
  EPWHeaderCity,                          !- Feature Name 1
  String,                                 !- Feature Data Type 1
  Denver Intl Ap,                         !- Feature Value 1
  EPWHeaderState,                         !- Feature Name 2
  String,                                 !- Feature Data Type 2
  CO,                                     !- Feature Value 2
  EPWHeaderCountry,                       !- Feature Name 3
  String,                                 !- Feature Data Type 3
  USA,                                    !- Feature Value 3
  EPWHeaderDataSource,                    !- Feature Name 4
  String,                                 !- Feature Data Type 4
  TMY3,                                   !- Feature Value 4
  EPWHeaderStation,                       !- Feature Name 5
  String,                                 !- Feature Data Type 5
  725650,                                 !- Feature Value 5
  EPWHeaderLatitude,                      !- Feature Name 6
  Double,                                 !- Feature Data Type 6
  39.829999999999998,                     !- Feature Value 6
  EPWHeaderLongitude,                     !- Feature Name 7
  Double,                                 !- Feature Data Type 7
  -104.65000000000001,                    !- Feature Value 7
  EPWHeaderTimezone,                      !- Feature Name 8
  Double,                                 !- Feature Data Type 8
  -7,                                     !- Feature Value 8
  EPWHeaderAltitude,                      !- Feature Name 9
  Double,                                 !- Feature Data Type 9
  5413.3858267716532,                     !- Feature Value 9
  EPWHeaderLocalPressure,                 !- Feature Name 10
  Double,                                 !- Feature Data Type 10
  0.81937567683596546,                    !- Feature Value 10
  EPWHeaderRecordsPerHour,                !- Feature Name 11
  Double,                                 !- Feature Data Type 11
  0,                                      !- Feature Value 11
  EPWDataAnnualAvgDrybulb,                !- Feature Name 12
  Double,                                 !- Feature Data Type 12
  51.575616438356228,                     !- Feature Value 12
  EPWDataAnnualMinDrybulb,                !- Feature Name 13
  Double,                                 !- Feature Data Type 13
  -2.9200000000000017,                    !- Feature Value 13
  EPWDataAnnualMaxDrybulb,                !- Feature Name 14
  Double,                                 !- Feature Data Type 14
  104,                                    !- Feature Value 14
  EPWDataCDD50F,                          !- Feature Name 15
  Double,                                 !- Feature Data Type 15
  3072.2925000000005,                     !- Feature Value 15
  EPWDataCDD65F,                          !- Feature Name 16
  Double,                                 !- Feature Data Type 16
  883.62000000000035,                     !- Feature Value 16
  EPWDataHDD50F,                          !- Feature Name 17
  Double,                                 !- Feature Data Type 17
  2497.1925000000001,                     !- Feature Value 17
  EPWDataHDD65F,                          !- Feature Name 18
  Double,                                 !- Feature Data Type 18
  5783.5200000000013,                     !- Feature Value 18
  EPWDataAnnualAvgWindspeed,              !- Feature Name 19
  Double,                                 !- Feature Data Type 19
  3.9165296803649667,                     !- Feature Value 19
  EPWDataMonthlyAvgDrybulbs,              !- Feature Name 20
  String,                                 !- Feature Data Type 20
  33.4191935483871&#4431.90142857142857&#4443.02620967741937&#4442.48624999999999&#4459.877741935483854&#4473.57574999999997&#4472.07975806451608&#4472.70008064516134&#4466.49200000000006&#4450.079112903225806&#4437.218250000000005&#4434.582177419354835, !- Feature Value 20
  EPWDataGroundMonthlyTemps,              !- Feature Name 21
  String,                                 !- Feature Data Type 21
  44.08306285945173&#4440.89570904991865&#4440.64045432632048&#4442.153016571250646&#4448.225111118704206&#4454.268919273837525&#4459.508577937551024&#4462.82777283423508&#4463.10975667174995&#4460.41014950381947&#4455.304105212311526&#4449.445696474514364, !- Feature Value 21
  EPWDataWSF,                             !- Feature Name 22
  Double,                                 !- Feature Data Type 22
  0.58999999999999997,                    !- Feature Value 22
  EPWDataMonthlyAvgDailyHighDrybulbs,     !- Feature Name 23
  String,                                 !- Feature Data Type 23
  47.41032258064516&#4446.58642857142857&#4455.15032258064517&#4453.708&#4472.80193548387098&#4488.67600000000002&#4486.1858064516129&#4485.87225806451613&#4482.082&#4463.18064516129033&#4448.73400000000001&#4448.87935483870968, !- Feature Value 23
  EPWDataMonthlyAvgDailyLowDrybulbs,      !- Feature Name 24
  String,                                 !- Feature Data Type 24
  19.347741935483874&#4419.856428571428573&#4430.316129032258065&#4431.112&#4447.41612903225806&#4457.901999999999994&#4459.063870967741934&#4460.956774193548384&#4452.352000000000004&#4438.41612903225806&#4427.002000000000002&#4423.02903225806451, !- Feature Value 24
  EPWDesignHeatingDrybulb,                !- Feature Name 25
  Double,                                 !- Feature Data Type 25
  12.02,                                  !- Feature Value 25
  EPWDesignHeatingWindspeed,              !- Feature Name 26
  Double,                                 !- Feature Data Type 26
  2.8062500000000004,                     !- Feature Value 26
  EPWDesignCoolingDrybulb,                !- Feature Name 27
  Double,                                 !- Feature Data Type 27
  91.939999999999998,                     !- Feature Value 27
  EPWDesignCoolingWetbulb,                !- Feature Name 28
  Double,                                 !- Feature Data Type 28
  59.95131430195849,                      !- Feature Value 28
  EPWDesignCoolingHumidityRatio,          !- Feature Name 29
  Double,                                 !- Feature Data Type 29
  0.0059161086834698092,                  !- Feature Value 29
  EPWDesignCoolingWindspeed,              !- Feature Name 30
  Double,                                 !- Feature Data Type 30
  3.7999999999999989,                     !- Feature Value 30
  EPWDesignDailyTemperatureRange,         !- Feature Name 31
  Double,                                 !- Feature Data Type 31
  24.915483870967748,                     !- Feature Value 31
  EPWDesignDehumidDrybulb,                !- Feature Name 32
  Double,                                 !- Feature Data Type 32
  67.996785714285721,                     !- Feature Value 32
  EPWDesignDehumidHumidityRatio,          !- Feature Name 33
  Double,                                 !- Feature Data Type 33
  0.012133744170488724,                   !- Feature Value 33
  EPWDesignCoolingDirectNormal,           !- Feature Name 34
  Double,                                 !- Feature Data Type 34
  985,                                    !- Feature Value 34
  EPWDesignCoolingDiffuseHorizontal,      !- Feature Name 35
  Double,                                 !- Feature Data Type 35
  84;                                     !- Feature Value 35

OS:YearDescription,
  {732055a7-92ec-46d4-bb25-1b5d05550b38}; !- Handle

OS:Site,
  {a4a7f5c6-3f64-4138-b84d-6aecd985421e}, !- Handle
  Denver Intl Ap_CO_USA,                  !- Name
  39.83,                                  !- Latitude {deg}
  -104.65,                                !- Longitude {deg}
  -7,                                     !- Time Zone {hr}
  1650,                                   !- Elevation {m}
  Suburbs;                                !- Terrain

OS:ClimateZones,
  {2d5b7807-ce59-41ff-a4cd-855f7b3f7334}, !- Handle
  ,                                       !- Active Institution
  ,                                       !- Active Year
  ,                                       !- Climate Zone Institution Name 1
  ,                                       !- Climate Zone Document Name 1
  ,                                       !- Climate Zone Document Year 1
  ,                                       !- Climate Zone Value 1
  Building America,                       !- Climate Zone Institution Name 2
  ,                                       !- Climate Zone Document Name 2
  0,                                      !- Climate Zone Document Year 2
  Cold;                                   !- Climate Zone Value 2

OS:Site:WaterMainsTemperature,
  {c29048d8-107e-439c-a972-5d8bed2846e6}, !- Handle
  Correlation,                            !- Calculation Method
  ,                                       !- Temperature Schedule Name
  10.8753424657535,                       !- Annual Average Outdoor Air Temperature {C}
  23.1524007936508;                       !- Maximum Difference In Monthly Average Outdoor Air Temperatures {deltaC}

OS:RunPeriodControl:DaylightSavingTime,
  {d14d7a75-43ca-481f-af82-52303a4a05e6}, !- Handle
  4/7,                                    !- Start Date
  10/26;                                  !- End Date

OS:Site:GroundTemperature:Deep,
  {44b89d0e-833b-4d95-a607-c1f65925ba71}, !- Handle
  10.8753424657535,                       !- January Deep Ground Temperature {C}
  10.8753424657535,                       !- February Deep Ground Temperature {C}
  10.8753424657535,                       !- March Deep Ground Temperature {C}
  10.8753424657535,                       !- April Deep Ground Temperature {C}
  10.8753424657535,                       !- May Deep Ground Temperature {C}
  10.8753424657535,                       !- June Deep Ground Temperature {C}
  10.8753424657535,                       !- July Deep Ground Temperature {C}
  10.8753424657535,                       !- August Deep Ground Temperature {C}
  10.8753424657535,                       !- September Deep Ground Temperature {C}
  10.8753424657535,                       !- October Deep Ground Temperature {C}
  10.8753424657535,                       !- November Deep Ground Temperature {C}
  10.8753424657535;                       !- December Deep Ground Temperature {C}

OS:ThermalZone,
  {003a634c-d3b9-46d4-a093-afbc89e3e99e}, !- Handle
  living zone,                            !- Name
  ,                                       !- Multiplier
  ,                                       !- Ceiling Height {m}
  ,                                       !- Volume {m3}
  ,                                       !- Floor Area {m2}
  ,                                       !- Zone Inside Convection Algorithm
  ,                                       !- Zone Outside Convection Algorithm
  ,                                       !- Zone Conditioning Equipment List Name
  {247a9e6c-74c9-4c41-9566-7ae42fef8ed8}, !- Zone Air Inlet Port List
  {c3060626-17d1-432c-9266-440aba46a295}, !- Zone Air Exhaust Port List
  {f597e397-a7e1-4822-8f8c-5d29b6b37436}, !- Zone Air Node Name
  {32c9a84a-8707-4ac7-9599-1b510a9b815f}, !- Zone Return Air Port List
  ,                                       !- Primary Daylighting Control Name
  ,                                       !- Fraction of Zone Controlled by Primary Daylighting Control
  ,                                       !- Secondary Daylighting Control Name
  ,                                       !- Fraction of Zone Controlled by Secondary Daylighting Control
  ,                                       !- Illuminance Map Name
  ,                                       !- Group Rendering Name
  {7ce1eab4-8bf3-42da-acbf-3d35b32754cc}, !- Thermostat Name
  No;                                     !- Use Ideal Air Loads

OS:Node,
  {967c88a6-da6a-496c-9086-9f540fac5527}, !- Handle
  Node 1,                                 !- Name
  {f597e397-a7e1-4822-8f8c-5d29b6b37436}, !- Inlet Port
  ;                                       !- Outlet Port

OS:Connection,
  {f597e397-a7e1-4822-8f8c-5d29b6b37436}, !- Handle
  {77ddc30e-23cb-4f9f-9501-10e5300c8bb7}, !- Name
  {003a634c-d3b9-46d4-a093-afbc89e3e99e}, !- Source Object
  11,                                     !- Outlet Port
  {967c88a6-da6a-496c-9086-9f540fac5527}, !- Target Object
  2;                                      !- Inlet Port

OS:PortList,
  {247a9e6c-74c9-4c41-9566-7ae42fef8ed8}, !- Handle
  {90a005b3-99b2-4604-8c0f-c9a1cb17cc49}, !- Name
  {003a634c-d3b9-46d4-a093-afbc89e3e99e}, !- HVAC Component
  {dddf9f2e-659a-4c12-bd73-4a2b2925a74b}, !- Port 1
  {ed3695f0-09b3-4bca-9ac8-d2a860867d27}; !- Port 2

OS:PortList,
  {c3060626-17d1-432c-9266-440aba46a295}, !- Handle
  {64390c2a-7581-4bd1-81a8-246b596d2a7f}, !- Name
  {003a634c-d3b9-46d4-a093-afbc89e3e99e}; !- HVAC Component

OS:PortList,
  {32c9a84a-8707-4ac7-9599-1b510a9b815f}, !- Handle
  {585418ab-120a-4cb5-a8ab-60a820ab91fd}, !- Name
  {003a634c-d3b9-46d4-a093-afbc89e3e99e}, !- HVAC Component
  {ed49e0fc-eb50-4eb1-92e5-12d17b2cb4e7}, !- Port 1
  {6fac5959-0393-40b3-8994-342f0f4b69c8}; !- Port 2

OS:Sizing:Zone,
  {68c7aea8-03c6-45d3-8331-d05933196257}, !- Handle
  {003a634c-d3b9-46d4-a093-afbc89e3e99e}, !- Zone or ZoneList Name
  SupplyAirTemperature,                   !- Zone Cooling Design Supply Air Temperature Input Method
  14,                                     !- Zone Cooling Design Supply Air Temperature {C}
  11.11,                                  !- Zone Cooling Design Supply Air Temperature Difference {deltaC}
  SupplyAirTemperature,                   !- Zone Heating Design Supply Air Temperature Input Method
  40,                                     !- Zone Heating Design Supply Air Temperature {C}
  11.11,                                  !- Zone Heating Design Supply Air Temperature Difference {deltaC}
  0.0085,                                 !- Zone Cooling Design Supply Air Humidity Ratio {kg-H2O/kg-air}
  0.008,                                  !- Zone Heating Design Supply Air Humidity Ratio {kg-H2O/kg-air}
  ,                                       !- Zone Heating Sizing Factor
  ,                                       !- Zone Cooling Sizing Factor
  DesignDay,                              !- Cooling Design Air Flow Method
  ,                                       !- Cooling Design Air Flow Rate {m3/s}
  ,                                       !- Cooling Minimum Air Flow per Zone Floor Area {m3/s-m2}
  ,                                       !- Cooling Minimum Air Flow {m3/s}
  ,                                       !- Cooling Minimum Air Flow Fraction
  DesignDay,                              !- Heating Design Air Flow Method
  ,                                       !- Heating Design Air Flow Rate {m3/s}
  ,                                       !- Heating Maximum Air Flow per Zone Floor Area {m3/s-m2}
  ,                                       !- Heating Maximum Air Flow {m3/s}
  ,                                       !- Heating Maximum Air Flow Fraction
  ,                                       !- Design Zone Air Distribution Effectiveness in Cooling Mode
  ,                                       !- Design Zone Air Distribution Effectiveness in Heating Mode
  No,                                     !- Account for Dedicated Outdoor Air System
  NeutralSupplyAir,                       !- Dedicated Outdoor Air System Control Strategy
  autosize,                               !- Dedicated Outdoor Air Low Setpoint Temperature for Design {C}
  autosize;                               !- Dedicated Outdoor Air High Setpoint Temperature for Design {C}

OS:ZoneHVAC:EquipmentList,
  {36918267-d39b-4ba6-9bdf-7fcf935223a8}, !- Handle
  Zone HVAC Equipment List 1,             !- Name
  {003a634c-d3b9-46d4-a093-afbc89e3e99e}, !- Thermal Zone
  SequentialLoad,                         !- Load Distribution Scheme
  {dd1cfb97-00db-422e-9f08-1af41b608db1}, !- Zone Equipment 1
  1,                                      !- Zone Equipment Cooling Sequence 1
  1,                                      !- Zone Equipment Heating or No-Load Sequence 1
  ,                                       !- Zone Equipment Sequential Cooling Fraction 1
  ,                                       !- Zone Equipment Sequential Heating Fraction 1
  {03e66408-ec0e-4f78-ba01-df2c0dfa0b07}, !- Zone Equipment 2
  2,                                      !- Zone Equipment Cooling Sequence 2
  2,                                      !- Zone Equipment Heating or No-Load Sequence 2
  ,                                       !- Zone Equipment Sequential Cooling Fraction 2
  ;                                       !- Zone Equipment Sequential Heating Fraction 2

OS:Space,
  {fa9a6307-e751-45d2-bba2-b7abccc01f30}, !- Handle
  living space,                           !- Name
  {0f2ba23d-aaa7-446f-953e-5bdab780a942}, !- Space Type Name
  ,                                       !- Default Construction Set Name
  ,                                       !- Default Schedule Set Name
  ,                                       !- Direction of Relative North {deg}
  ,                                       !- X Origin {m}
  ,                                       !- Y Origin {m}
  ,                                       !- Z Origin {m}
  ,                                       !- Building Story Name
  {003a634c-d3b9-46d4-a093-afbc89e3e99e}, !- Thermal Zone Name
  ,                                       !- Part of Total Floor Area
  ,                                       !- Design Specification Outdoor Air Object Name
  {47a4e219-1200-40e6-914d-871bd5de9805}; !- Building Unit Name

OS:Surface,
  {42a9267e-e953-4506-ad63-b479d7bdd6c0}, !- Handle
  Surface 1,                              !- Name
  Floor,                                  !- Surface Type
  {da70f2f6-6b98-46ad-9bc5-942d60c70e58}, !- Construction Name
  {fa9a6307-e751-45d2-bba2-b7abccc01f30}, !- Space Name
  Surface,                                !- Outside Boundary Condition
  {451aa7ed-7308-417f-8410-c3621189bca0}, !- Outside Boundary Condition Object
  NoSun,                                  !- Sun Exposure
  NoWind,                                 !- Wind Exposure
  ,                                       !- View Factor to Ground
  ,                                       !- Number of Vertices
  0, -6.46578440716979, 0,                !- X,Y,Z Vertex 1 {m}
  0, 0, 0,                                !- X,Y,Z Vertex 2 {m}
  3.59210244842766, 0, 0,                 !- X,Y,Z Vertex 3 {m}
  3.59210244842766, -6.46578440716979, 0; !- X,Y,Z Vertex 4 {m}

OS:Surface,
  {388b2812-933c-452e-89e2-d2cbac231976}, !- Handle
  Surface 2,                              !- Name
  Wall,                                   !- Surface Type
  {e3bf202e-2e0f-4e6c-a84a-219892d2ecd4}, !- Construction Name
  {fa9a6307-e751-45d2-bba2-b7abccc01f30}, !- Space Name
  Outdoors,                               !- Outside Boundary Condition
  ,                                       !- Outside Boundary Condition Object
  SunExposed,                             !- Sun Exposure
  WindExposed,                            !- Wind Exposure
  ,                                       !- View Factor to Ground
  ,                                       !- Number of Vertices
  0, 0, 2.4384,                           !- X,Y,Z Vertex 1 {m}
  0, 0, 0,                                !- X,Y,Z Vertex 2 {m}
  0, -6.46578440716979, 0,                !- X,Y,Z Vertex 3 {m}
  0, -6.46578440716979, 2.4384;           !- X,Y,Z Vertex 4 {m}

OS:Surface,
  {c78fed8f-fb41-4ece-ab62-e764cef4f14f}, !- Handle
  Surface 3,                              !- Name
  Wall,                                   !- Surface Type
  {e3bf202e-2e0f-4e6c-a84a-219892d2ecd4}, !- Construction Name
  {fa9a6307-e751-45d2-bba2-b7abccc01f30}, !- Space Name
  Outdoors,                               !- Outside Boundary Condition
  ,                                       !- Outside Boundary Condition Object
  SunExposed,                             !- Sun Exposure
  WindExposed,                            !- Wind Exposure
  ,                                       !- View Factor to Ground
  ,                                       !- Number of Vertices
  3.59210244842766, 0, 2.4384,            !- X,Y,Z Vertex 1 {m}
  3.59210244842766, 0, 0,                 !- X,Y,Z Vertex 2 {m}
  0, 0, 0,                                !- X,Y,Z Vertex 3 {m}
  0, 0, 2.4384;                           !- X,Y,Z Vertex 4 {m}

OS:Surface,
  {ab88e941-3822-498c-b3fa-0eca5ffb54e6}, !- Handle
  Surface 4,                              !- Name
  Wall,                                   !- Surface Type
  {0fbfade3-77d2-494a-b053-e6b8f8cb7378}, !- Construction Name
  {fa9a6307-e751-45d2-bba2-b7abccc01f30}, !- Space Name
  Surface,                                !- Outside Boundary Condition
  {e06e9476-3c6c-4ede-b776-3f0ca710e09c}, !- Outside Boundary Condition Object
  NoSun,                                  !- Sun Exposure
  NoWind,                                 !- Wind Exposure
  ,                                       !- View Factor to Ground
  ,                                       !- Number of Vertices
  3.59210244842766, -6.46578440716979, 2.4384, !- X,Y,Z Vertex 1 {m}
  3.59210244842766, -6.46578440716979, 0, !- X,Y,Z Vertex 2 {m}
  3.59210244842766, 0, 0,                 !- X,Y,Z Vertex 3 {m}
  3.59210244842766, 0, 2.4384;            !- X,Y,Z Vertex 4 {m}

OS:Surface,
  {e93075b5-95d7-40eb-9e5f-4dc313316de3}, !- Handle
  Surface 5,                              !- Name
  Wall,                                   !- Surface Type
  {e3bf202e-2e0f-4e6c-a84a-219892d2ecd4}, !- Construction Name
  {fa9a6307-e751-45d2-bba2-b7abccc01f30}, !- Space Name
  Outdoors,                               !- Outside Boundary Condition
  ,                                       !- Outside Boundary Condition Object
  SunExposed,                             !- Sun Exposure
  WindExposed,                            !- Wind Exposure
  ,                                       !- View Factor to Ground
  ,                                       !- Number of Vertices
  3.59210244842766, -6.46578440716979, 0, !- X,Y,Z Vertex 1 {m}
  3.59210244842766, -6.46578440716979, 2.4384, !- X,Y,Z Vertex 2 {m}
  1.04865714285714, -6.46578440716979, 2.4384, !- X,Y,Z Vertex 3 {m}
  1.04865714285714, -6.46578440716979, 0; !- X,Y,Z Vertex 4 {m}

OS:Surface,
  {43ef34f3-d85d-4bd3-9639-a67b05f1ea6c}, !- Handle
  Surface 6,                              !- Name
  RoofCeiling,                            !- Surface Type
  {7ec0650e-2511-4052-8409-ec192c1174d9}, !- Construction Name
  {fa9a6307-e751-45d2-bba2-b7abccc01f30}, !- Space Name
  Surface,                                !- Outside Boundary Condition
  {c996e8e4-915c-4d60-8edb-b3f003ef45ab}, !- Outside Boundary Condition Object
  NoSun,                                  !- Sun Exposure
  NoWind,                                 !- Wind Exposure
  ,                                       !- View Factor to Ground
  ,                                       !- Number of Vertices
  3.59210244842766, -6.46578440716979, 2.4384, !- X,Y,Z Vertex 1 {m}
  3.59210244842766, 0, 2.4384,            !- X,Y,Z Vertex 2 {m}
  0, 0, 2.4384,                           !- X,Y,Z Vertex 3 {m}
  0, -6.46578440716979, 2.4384;           !- X,Y,Z Vertex 4 {m}

OS:SpaceType,
  {0f2ba23d-aaa7-446f-953e-5bdab780a942}, !- Handle
  Space Type 1,                           !- Name
  ,                                       !- Default Construction Set Name
  ,                                       !- Default Schedule Set Name
  ,                                       !- Group Rendering Name
  ,                                       !- Design Specification Outdoor Air Object Name
  ,                                       !- Standards Template
  ,                                       !- Standards Building Type
  living;                                 !- Standards Space Type

OS:Space,
  {a086bf0d-8b8f-4db0-b4ba-42967f3bb1ba}, !- Handle
  living space|story 2,                   !- Name
  {0f2ba23d-aaa7-446f-953e-5bdab780a942}, !- Space Type Name
  ,                                       !- Default Construction Set Name
  ,                                       !- Default Schedule Set Name
  -0,                                     !- Direction of Relative North {deg}
  0,                                      !- X Origin {m}
  0,                                      !- Y Origin {m}
  2.4384,                                 !- Z Origin {m}
  ,                                       !- Building Story Name
  {003a634c-d3b9-46d4-a093-afbc89e3e99e}, !- Thermal Zone Name
  ,                                       !- Part of Total Floor Area
  ,                                       !- Design Specification Outdoor Air Object Name
  {47a4e219-1200-40e6-914d-871bd5de9805}; !- Building Unit Name

OS:Surface,
  {d7a3165a-85a1-4e5e-91f4-452a08d676db}, !- Handle
  Surface 7,                              !- Name
  Wall,                                   !- Surface Type
  {e3bf202e-2e0f-4e6c-a84a-219892d2ecd4}, !- Construction Name
  {a086bf0d-8b8f-4db0-b4ba-42967f3bb1ba}, !- Space Name
  Outdoors,                               !- Outside Boundary Condition
  ,                                       !- Outside Boundary Condition Object
  SunExposed,                             !- Sun Exposure
  WindExposed,                            !- Wind Exposure
  ,                                       !- View Factor to Ground
  ,                                       !- Number of Vertices
  0, 0, 2.4384,                           !- X,Y,Z Vertex 1 {m}
  0, 0, 0,                                !- X,Y,Z Vertex 2 {m}
  0, -6.46578440716979, 0,                !- X,Y,Z Vertex 3 {m}
  0, -6.46578440716979, 2.4384;           !- X,Y,Z Vertex 4 {m}

OS:Surface,
  {113e749f-9c65-4ee6-bce0-ef929a4fb7c8}, !- Handle
  Surface 8,                              !- Name
  Wall,                                   !- Surface Type
  {e3bf202e-2e0f-4e6c-a84a-219892d2ecd4}, !- Construction Name
  {a086bf0d-8b8f-4db0-b4ba-42967f3bb1ba}, !- Space Name
  Outdoors,                               !- Outside Boundary Condition
  ,                                       !- Outside Boundary Condition Object
  SunExposed,                             !- Sun Exposure
  WindExposed,                            !- Wind Exposure
  ,                                       !- View Factor to Ground
  ,                                       !- Number of Vertices
  3.59210244842766, 0, 2.4384,            !- X,Y,Z Vertex 1 {m}
  3.59210244842766, 0, 0,                 !- X,Y,Z Vertex 2 {m}
  0, 0, 0,                                !- X,Y,Z Vertex 3 {m}
  0, 0, 2.4384;                           !- X,Y,Z Vertex 4 {m}

OS:Surface,
  {ae8f49c1-ca4b-4297-8c17-210285c321b9}, !- Handle
  Surface 9,                              !- Name
  Wall,                                   !- Surface Type
  {0fbfade3-77d2-494a-b053-e6b8f8cb7378}, !- Construction Name
  {a086bf0d-8b8f-4db0-b4ba-42967f3bb1ba}, !- Space Name
  Surface,                                !- Outside Boundary Condition
  {97d4bba9-9968-4b00-8fe4-7163f0099c18}, !- Outside Boundary Condition Object
  NoSun,                                  !- Sun Exposure
  NoWind,                                 !- Wind Exposure
  ,                                       !- View Factor to Ground
  ,                                       !- Number of Vertices
  3.59210244842766, -6.46578440716979, 2.4384, !- X,Y,Z Vertex 1 {m}
  3.59210244842766, -6.46578440716979, 0, !- X,Y,Z Vertex 2 {m}
  3.59210244842766, 0, 0,                 !- X,Y,Z Vertex 3 {m}
  3.59210244842766, 0, 2.4384;            !- X,Y,Z Vertex 4 {m}

OS:Surface,
  {c996e8e4-915c-4d60-8edb-b3f003ef45ab}, !- Handle
  Surface 10,                             !- Name
  Floor,                                  !- Surface Type
  {125ca175-98fd-4bb6-a51f-c3236aee62e8}, !- Construction Name
  {a086bf0d-8b8f-4db0-b4ba-42967f3bb1ba}, !- Space Name
  Surface,                                !- Outside Boundary Condition
  {43ef34f3-d85d-4bd3-9639-a67b05f1ea6c}, !- Outside Boundary Condition Object
  NoSun,                                  !- Sun Exposure
  NoWind,                                 !- Wind Exposure
  ,                                       !- View Factor to Ground
  ,                                       !- Number of Vertices
  0, -6.46578440716979, 0,                !- X,Y,Z Vertex 1 {m}
  0, 0, 0,                                !- X,Y,Z Vertex 2 {m}
  3.59210244842766, 0, 0,                 !- X,Y,Z Vertex 3 {m}
  3.59210244842766, -6.46578440716979, 0; !- X,Y,Z Vertex 4 {m}

OS:Surface,
  {7f6b5c27-1aea-43be-8006-7f68a7d89b48}, !- Handle
  Surface 11,                             !- Name
  RoofCeiling,                            !- Surface Type
  {38a1ea3b-3638-44e9-acde-42b6438c2b77}, !- Construction Name