!- NOTE: Auto-generated from /test/osw_files/SFA_4units_1story_UB_UA_3Beds_2Baths_Denver_WHTank.osw

OS:Version,
  {362abb1a-4d01-499a-a929-04718f6350d4}, !- Handle
  2.8.0;                                  !- Version Identifier

OS:SimulationControl,
  {ff49b754-1235-4bd9-8d87-345598767159}, !- Handle
  ,                                       !- Do Zone Sizing Calculation
  ,                                       !- Do System Sizing Calculation
  ,                                       !- Do Plant Sizing Calculation
  No;                                     !- Run Simulation for Sizing Periods

OS:Timestep,
  {a1218704-229e-4561-9779-99205d0bcb65}, !- Handle
  6;                                      !- Number of Timesteps per Hour

OS:ShadowCalculation,
  {537c792b-9963-40dc-8f91-33042e400021}, !- Handle
  20,                                     !- Calculation Frequency
  200;                                    !- Maximum Figures in Shadow Overlap Calculations

OS:SurfaceConvectionAlgorithm:Outside,
  {a3577260-b2ac-475a-8314-9b36e0ef122e}, !- Handle
  DOE-2;                                  !- Algorithm

OS:SurfaceConvectionAlgorithm:Inside,
  {cc15476d-29f0-42fd-a621-74e19188cdaa}, !- Handle
  TARP;                                   !- Algorithm

OS:ZoneCapacitanceMultiplier:ResearchSpecial,
  {3ec9d645-98e6-4862-bf60-76a5cf5e081e}, !- Handle
  ,                                       !- Temperature Capacity Multiplier
  15,                                     !- Humidity Capacity Multiplier
  ;                                       !- Carbon Dioxide Capacity Multiplier

OS:RunPeriod,
  {12830e27-af97-4ab3-bbf1-2f89da4306b0}, !- Handle
  Run Period 1,                           !- Name
  1,                                      !- Begin Month
  1,                                      !- Begin Day of Month
  12,                                     !- End Month
  31,                                     !- End Day of Month
  ,                                       !- Use Weather File Holidays and Special Days
  ,                                       !- Use Weather File Daylight Saving Period
  ,                                       !- Apply Weekend Holiday Rule
  ,                                       !- Use Weather File Rain Indicators
  ,                                       !- Use Weather File Snow Indicators
  ;                                       !- Number of Times Runperiod to be Repeated

OS:ThermalZone,
  {28d6bd27-3fbb-4688-82af-c2cc85586aee}, !- Handle
  living zone,                            !- Name
  ,                                       !- Multiplier
  ,                                       !- Ceiling Height {m}
  ,                                       !- Volume {m3}
  ,                                       !- Floor Area {m2}
  ,                                       !- Zone Inside Convection Algorithm
  ,                                       !- Zone Outside Convection Algorithm
  ,                                       !- Zone Conditioning Equipment List Name
  {9209eac6-4dff-42f7-b822-9d7afd07e1ea}, !- Zone Air Inlet Port List
  {b31a945c-ffe6-4557-974b-8c3053d669a2}, !- Zone Air Exhaust Port List
  {4757fc4d-32b4-4cbf-9861-bead8574303a}, !- Zone Air Node Name
  {5835102c-dcf8-4057-9600-328776002047}, !- Zone Return Air Port List
  ,                                       !- Primary Daylighting Control Name
  ,                                       !- Fraction of Zone Controlled by Primary Daylighting Control
  ,                                       !- Secondary Daylighting Control Name
  ,                                       !- Fraction of Zone Controlled by Secondary Daylighting Control
  ,                                       !- Illuminance Map Name
  ,                                       !- Group Rendering Name
  ,                                       !- Thermostat Name
  No;                                     !- Use Ideal Air Loads

OS:Node,
  {f566a68f-06e8-4c85-8717-b17ad9365f35}, !- Handle
  Node 1,                                 !- Name
  {4757fc4d-32b4-4cbf-9861-bead8574303a}, !- Inlet Port
  ;                                       !- Outlet Port

OS:Connection,
  {4757fc4d-32b4-4cbf-9861-bead8574303a}, !- Handle
  {15507277-9d67-4f75-97eb-5ac3ecc53993}, !- Name
  {28d6bd27-3fbb-4688-82af-c2cc85586aee}, !- Source Object
  11,                                     !- Outlet Port
  {f566a68f-06e8-4c85-8717-b17ad9365f35}, !- Target Object
  2;                                      !- Inlet Port

OS:PortList,
  {9209eac6-4dff-42f7-b822-9d7afd07e1ea}, !- Handle
  {12eb274f-fb42-46df-b441-1836dd3b12ea}, !- Name
  {28d6bd27-3fbb-4688-82af-c2cc85586aee}; !- HVAC Component

OS:PortList,
  {b31a945c-ffe6-4557-974b-8c3053d669a2}, !- Handle
  {9037b204-cd32-462b-9577-6738539b2dd2}, !- Name
  {28d6bd27-3fbb-4688-82af-c2cc85586aee}; !- HVAC Component

OS:PortList,
  {5835102c-dcf8-4057-9600-328776002047}, !- Handle
  {9e2559d4-1d4d-475f-9f0d-737d88d23b71}, !- Name
  {28d6bd27-3fbb-4688-82af-c2cc85586aee}; !- HVAC Component

OS:Sizing:Zone,
  {770b6d7b-71a8-4024-affc-b46349158d18}, !- Handle
  {28d6bd27-3fbb-4688-82af-c2cc85586aee}, !- Zone or ZoneList Name
  SupplyAirTemperature,                   !- Zone Cooling Design Supply Air Temperature Input Method
  14,                                     !- Zone Cooling Design Supply Air Temperature {C}
  11.11,                                  !- Zone Cooling Design Supply Air Temperature Difference {deltaC}
  SupplyAirTemperature,                   !- Zone Heating Design Supply Air Temperature Input Method
  40,                                     !- Zone Heating Design Supply Air Temperature {C}
  11.11,                                  !- Zone Heating Design Supply Air Temperature Difference {deltaC}
  0.0085,                                 !- Zone Cooling Design Supply Air Humidity Ratio {kg-H2O/kg-air}
  0.008,                                  !- Zone Heating Design Supply Air Humidity Ratio {kg-H2O/kg-air}
  ,                                       !- Zone Heating Sizing Factor
  ,                                       !- Zone Cooling Sizing Factor
  DesignDay,                              !- Cooling Design Air Flow Method
  ,                                       !- Cooling Design Air Flow Rate {m3/s}
  ,                                       !- Cooling Minimum Air Flow per Zone Floor Area {m3/s-m2}
  ,                                       !- Cooling Minimum Air Flow {m3/s}
  ,                                       !- Cooling Minimum Air Flow Fraction
  DesignDay,                              !- Heating Design Air Flow Method
  ,                                       !- Heating Design Air Flow Rate {m3/s}
  ,                                       !- Heating Maximum Air Flow per Zone Floor Area {m3/s-m2}
  ,                                       !- Heating Maximum Air Flow {m3/s}
  ,                                       !- Heating Maximum Air Flow Fraction
  ,                                       !- Design Zone Air Distribution Effectiveness in Cooling Mode
  ,                                       !- Design Zone Air Distribution Effectiveness in Heating Mode
  No,                                     !- Account for Dedicated Outdoor Air System
  NeutralSupplyAir,                       !- Dedicated Outdoor Air System Control Strategy
  autosize,                               !- Dedicated Outdoor Air Low Setpoint Temperature for Design {C}
  autosize;                               !- Dedicated Outdoor Air High Setpoint Temperature for Design {C}

OS:ZoneHVAC:EquipmentList,
  {ac40273f-395d-4e8f-bbbc-931de51fa4d4}, !- Handle
  Zone HVAC Equipment List 1,             !- Name
  {28d6bd27-3fbb-4688-82af-c2cc85586aee}; !- Thermal Zone

OS:Space,
  {02a4d18e-98ae-460d-9e43-5bf0a456c34c}, !- Handle
  living space,                           !- Name
  {53878f2d-06de-46c1-ab0e-20f0fe5cd367}, !- Space Type Name
  ,                                       !- Default Construction Set Name
  ,                                       !- Default Schedule Set Name
  ,                                       !- Direction of Relative North {deg}
  ,                                       !- X Origin {m}
  ,                                       !- Y Origin {m}
  ,                                       !- Z Origin {m}
  ,                                       !- Building Story Name
  {28d6bd27-3fbb-4688-82af-c2cc85586aee}, !- Thermal Zone Name
  ,                                       !- Part of Total Floor Area
  ,                                       !- Design Specification Outdoor Air Object Name
  {02a61ecc-010e-4727-b0cc-fa2e9eb89755}; !- Building Unit Name

OS:Surface,
  {4f6c2f07-2341-453b-a7e5-eeb1dd42e997}, !- Handle
  Surface 1,                              !- Name
  Floor,                                  !- Surface Type
  ,                                       !- Construction Name
  {02a4d18e-98ae-460d-9e43-5bf0a456c34c}, !- Space Name
  Surface,                                !- Outside Boundary Condition
  {b9bb17a3-13ad-48fb-868e-e2344ecfea07}, !- Outside Boundary Condition Object
  NoSun,                                  !- Sun Exposure
  NoWind,                                 !- Wind Exposure
  ,                                       !- View Factor to Ground
  ,                                       !- Number of Vertices
  0, -12.9315688143396, 0,                !- X,Y,Z Vertex 1 {m}
  0, 0, 0,                                !- X,Y,Z Vertex 2 {m}
  6.46578440716979, 0, 0,                 !- X,Y,Z Vertex 3 {m}
  6.46578440716979, -12.9315688143396, 0; !- X,Y,Z Vertex 4 {m}

OS:Surface,
  {d2b78cbf-858f-4ea4-acfb-b585dc76b4e3}, !- Handle
  Surface 2,                              !- Name
  Wall,                                   !- Surface Type
  ,                                       !- Construction Name
  {02a4d18e-98ae-460d-9e43-5bf0a456c34c}, !- Space Name
  Outdoors,                               !- Outside Boundary Condition
  ,                                       !- Outside Boundary Condition Object
  SunExposed,                             !- Sun Exposure
  WindExposed,                            !- Wind Exposure
  ,                                       !- View Factor to Ground
  ,                                       !- Number of Vertices
  0, 0, 2.4384,                           !- X,Y,Z Vertex 1 {m}
  0, 0, 0,                                !- X,Y,Z Vertex 2 {m}
  0, -12.9315688143396, 0,                !- X,Y,Z Vertex 3 {m}
  0, -12.9315688143396, 2.4384;           !- X,Y,Z Vertex 4 {m}

OS:Surface,
  {da5fa787-a4e6-42ca-afbf-58f65dc69aa9}, !- Handle
  Surface 3,                              !- Name
  Wall,                                   !- Surface Type
  ,                                       !- Construction Name
  {02a4d18e-98ae-460d-9e43-5bf0a456c34c}, !- Space Name
  Outdoors,                               !- Outside Boundary Condition
  ,                                       !- Outside Boundary Condition Object
  SunExposed,                             !- Sun Exposure
  WindExposed,                            !- Wind Exposure
  ,                                       !- View Factor to Ground
  ,                                       !- Number of Vertices
  6.46578440716979, 0, 2.4384,            !- X,Y,Z Vertex 1 {m}
  6.46578440716979, 0, 0,                 !- X,Y,Z Vertex 2 {m}
  0, 0, 0,                                !- X,Y,Z Vertex 3 {m}
  0, 0, 2.4384;                           !- X,Y,Z Vertex 4 {m}

OS:Surface,
  {46b9b413-9d91-4a28-812a-61c74d2ba754}, !- Handle
  Surface 4,                              !- Name
  Wall,                                   !- Surface Type
  ,                                       !- Construction Name
  {02a4d18e-98ae-460d-9e43-5bf0a456c34c}, !- Space Name
  Surface,                                !- Outside Boundary Condition
  {a48dbfd1-423f-4462-82dc-2524b0420f9f}, !- Outside Boundary Condition Object
  NoSun,                                  !- Sun Exposure
  NoWind,                                 !- Wind Exposure
  ,                                       !- View Factor to Ground
  ,                                       !- Number of Vertices
  6.46578440716979, -12.9315688143396, 2.4384, !- X,Y,Z Vertex 1 {m}
  6.46578440716979, -12.9315688143396, 0, !- X,Y,Z Vertex 2 {m}
  6.46578440716979, 0, 0,                 !- X,Y,Z Vertex 3 {m}
  6.46578440716979, 0, 2.4384;            !- X,Y,Z Vertex 4 {m}

OS:Surface,
  {cdb26ca3-2b4a-47ba-bb23-7b5211adba48}, !- Handle
  Surface 5,                              !- Name
  Wall,                                   !- Surface Type
  ,                                       !- Construction Name
  {02a4d18e-98ae-460d-9e43-5bf0a456c34c}, !- Space Name
  Outdoors,                               !- Outside Boundary Condition
  ,                                       !- Outside Boundary Condition Object
  SunExposed,                             !- Sun Exposure
  WindExposed,                            !- Wind Exposure
  ,                                       !- View Factor to Ground
  ,                                       !- Number of Vertices
  0, -12.9315688143396, 2.4384,           !- X,Y,Z Vertex 1 {m}
  0, -12.9315688143396, 0,                !- X,Y,Z Vertex 2 {m}
  6.46578440716979, -12.9315688143396, 0, !- X,Y,Z Vertex 3 {m}
  6.46578440716979, -12.9315688143396, 2.4384; !- X,Y,Z Vertex 4 {m}

OS:Surface,
  {1f1ec115-892e-4210-8934-e92428bc7e98}, !- Handle
  Surface 6,                              !- Name
  RoofCeiling,                            !- Surface Type
  ,                                       !- Construction Name
  {02a4d18e-98ae-460d-9e43-5bf0a456c34c}, !- Space Name
  Surface,                                !- Outside Boundary Condition
  {416ecaae-0bb5-4b6c-b0dd-25f44b5a3053}, !- Outside Boundary Condition Object
  NoSun,                                  !- Sun Exposure
  NoWind,                                 !- Wind Exposure
  ,                                       !- View Factor to Ground
  ,                                       !- Number of Vertices
  6.46578440716979, -12.9315688143396, 2.4384, !- X,Y,Z Vertex 1 {m}
  6.46578440716979, 0, 2.4384,            !- X,Y,Z Vertex 2 {m}
  0, 0, 2.4384,                           !- X,Y,Z Vertex 3 {m}
  0, -12.9315688143396, 2.4384;           !- X,Y,Z Vertex 4 {m}

OS:SpaceType,
  {53878f2d-06de-46c1-ab0e-20f0fe5cd367}, !- Handle
  Space Type 1,                           !- Name
  ,                                       !- Default Construction Set Name
  ,                                       !- Default Schedule Set Name
  ,                                       !- Group Rendering Name
  ,                                       !- Design Specification Outdoor Air Object Name
  ,                                       !- Standards Template
  ,                                       !- Standards Building Type
  living;                                 !- Standards Space Type

OS:ThermalZone,
  {e843e357-f0c2-4490-8328-d391a56f858a}, !- Handle
  living zone|unit 2,                     !- Name
  ,                                       !- Multiplier
  ,                                       !- Ceiling Height {m}
  ,                                       !- Volume {m3}
  ,                                       !- Floor Area {m2}
  ,                                       !- Zone Inside Convection Algorithm
  ,                                       !- Zone Outside Convection Algorithm
  ,                                       !- Zone Conditioning Equipment List Name
  {088d0752-54af-45de-a2c1-01fafe137368}, !- Zone Air Inlet Port List
  {98b263a2-e2c7-4b89-8fbf-cab71c5f006d}, !- Zone Air Exhaust Port List
  {f7a95a2d-16bf-43d6-8377-594d37a74a39}, !- Zone Air Node Name
  {4a75d27b-4aff-4410-8e8c-12d04595a7b2}, !- Zone Return Air Port List
  ,                                       !- Primary Daylighting Control Name
  ,                                       !- Fraction of Zone Controlled by Primary Daylighting Control
  ,                                       !- Secondary Daylighting Control Name
  ,                                       !- Fraction of Zone Controlled by Secondary Daylighting Control
  ,                                       !- Illuminance Map Name
  ,                                       !- Group Rendering Name
  ,                                       !- Thermostat Name
  No;                                     !- Use Ideal Air Loads

OS:Node,
  {66e714eb-50a8-4ac4-b33c-df630de41bd6}, !- Handle
  Node 2,                                 !- Name
  {f7a95a2d-16bf-43d6-8377-594d37a74a39}, !- Inlet Port
  ;                                       !- Outlet Port

OS:Connection,
  {f7a95a2d-16bf-43d6-8377-594d37a74a39}, !- Handle
  {dbf6120c-de31-4097-9a57-9dcb31957799}, !- Name
  {e843e357-f0c2-4490-8328-d391a56f858a}, !- Source Object
  11,                                     !- Outlet Port
  {66e714eb-50a8-4ac4-b33c-df630de41bd6}, !- Target Object
  2;                                      !- Inlet Port

OS:PortList,
  {088d0752-54af-45de-a2c1-01fafe137368}, !- Handle
  {fb2c13b2-2e60-4b80-9c60-e87fa84cbb80}, !- Name
  {e843e357-f0c2-4490-8328-d391a56f858a}; !- HVAC Component

OS:PortList,
  {98b263a2-e2c7-4b89-8fbf-cab71c5f006d}, !- Handle
  {585c4eaf-150e-42c0-9093-5dddabe36c1e}, !- Name
  {e843e357-f0c2-4490-8328-d391a56f858a}; !- HVAC Component

OS:PortList,
  {4a75d27b-4aff-4410-8e8c-12d04595a7b2}, !- Handle
  {5dffdaa2-2419-4bce-a9f2-b5b9fcd0996c}, !- Name
  {e843e357-f0c2-4490-8328-d391a56f858a}; !- HVAC Component

OS:Sizing:Zone,
  {067cb9a3-035e-4c70-b02e-41024c338a75}, !- Handle
  {e843e357-f0c2-4490-8328-d391a56f858a}, !- Zone or ZoneList Name
  SupplyAirTemperature,                   !- Zone Cooling Design Supply Air Temperature Input Method
  14,                                     !- Zone Cooling Design Supply Air Temperature {C}
  11.11,                                  !- Zone Cooling Design Supply Air Temperature Difference {deltaC}
  SupplyAirTemperature,                   !- Zone Heating Design Supply Air Temperature Input Method
  40,                                     !- Zone Heating Design Supply Air Temperature {C}
  11.11,                                  !- Zone Heating Design Supply Air Temperature Difference {deltaC}
  0.0085,                                 !- Zone Cooling Design Supply Air Humidity Ratio {kg-H2O/kg-air}
  0.008,                                  !- Zone Heating Design Supply Air Humidity Ratio {kg-H2O/kg-air}
  ,                                       !- Zone Heating Sizing Factor
  ,                                       !- Zone Cooling Sizing Factor
  DesignDay,                              !- Cooling Design Air Flow Method
  ,                                       !- Cooling Design Air Flow Rate {m3/s}
  ,                                       !- Cooling Minimum Air Flow per Zone Floor Area {m3/s-m2}
  ,                                       !- Cooling Minimum Air Flow {m3/s}
  ,                                       !- Cooling Minimum Air Flow Fraction
  DesignDay,                              !- Heating Design Air Flow Method
  ,                                       !- Heating Design Air Flow Rate {m3/s}
  ,                                       !- Heating Maximum Air Flow per Zone Floor Area {m3/s-m2}
  ,                                       !- Heating Maximum Air Flow {m3/s}
  ,                                       !- Heating Maximum Air Flow Fraction
  ,                                       !- Design Zone Air Distribution Effectiveness in Cooling Mode
  ,                                       !- Design Zone Air Distribution Effectiveness in Heating Mode
  No,                                     !- Account for Dedicated Outdoor Air System
  NeutralSupplyAir,                       !- Dedicated Outdoor Air System Control Strategy
  autosize,                               !- Dedicated Outdoor Air Low Setpoint Temperature for Design {C}
  autosize;                               !- Dedicated Outdoor Air High Setpoint Temperature for Design {C}

OS:ZoneHVAC:EquipmentList,
  {21f8075c-35ef-4a01-8b85-5a1e2231ce26}, !- Handle
  Zone HVAC Equipment List 2,             !- Name
  {e843e357-f0c2-4490-8328-d391a56f858a}; !- Thermal Zone

OS:Space,
  {fe8db591-e644-4cb2-b04f-28b6f30d9d2a}, !- Handle
  living space|unit 2|story 1,            !- Name
  {53878f2d-06de-46c1-ab0e-20f0fe5cd367}, !- Space Type Name
  ,                                       !- Default Construction Set Name
  ,                                       !- Default Schedule Set Name
  -0,                                     !- Direction of Relative North {deg}
  0,                                      !- X Origin {m}
  0,                                      !- Y Origin {m}
  0,                                      !- Z Origin {m}
  ,                                       !- Building Story Name
  {e843e357-f0c2-4490-8328-d391a56f858a}, !- Thermal Zone Name
  ,                                       !- Part of Total Floor Area
  ,                                       !- Design Specification Outdoor Air Object Name
  {bdf73afa-f706-4628-8a09-88f2177b8870}; !- Building Unit Name

OS:Surface,
  {edfe92de-3a1a-46fd-867d-ab8f20a85043}, !- Handle
  Surface 12,                             !- Name
  Wall,                                   !- Surface Type
  ,                                       !- Construction Name
  {fe8db591-e644-4cb2-b04f-28b6f30d9d2a}, !- Space Name
  Outdoors,                               !- Outside Boundary Condition
  ,                                       !- Outside Boundary Condition Object
  SunExposed,                             !- Sun Exposure
  WindExposed,                            !- Wind Exposure
  ,                                       !- View Factor to Ground
  ,                                       !- Number of Vertices
  12.9315688143396, 0, 2.4384,            !- X,Y,Z Vertex 1 {m}
  12.9315688143396, 0, 0,                 !- X,Y,Z Vertex 2 {m}
  6.46578440716979, 0, 0,                 !- X,Y,Z Vertex 3 {m}
  6.46578440716979, 0, 2.4384;            !- X,Y,Z Vertex 4 {m}

OS:Surface,
  {40649e08-1dc1-4565-ab93-41b0f0cf5b72}, !- Handle
  Surface 13,                             !- Name
  Floor,                                  !- Surface Type
  ,                                       !- Construction Name
  {fe8db591-e644-4cb2-b04f-28b6f30d9d2a}, !- Space Name
  Surface,                                !- Outside Boundary Condition
  {9eefe608-1a14-45a4-8986-261ec01107c5}, !- Outside Boundary Condition Object
  NoSun,                                  !- Sun Exposure
  NoWind,                                 !- Wind Exposure
  ,                                       !- View Factor to Ground
  ,                                       !- Number of Vertices
  6.46578440716979, -12.9315688143396, 0, !- X,Y,Z Vertex 1 {m}
  6.46578440716979, 0, 0,                 !- X,Y,Z Vertex 2 {m}
  12.9315688143396, 0, 0,                 !- X,Y,Z Vertex 3 {m}
  12.9315688143396, -12.9315688143396, 0; !- X,Y,Z Vertex 4 {m}

OS:Surface,
  {c696f9b1-92b0-4212-a030-cbca4f68c2aa}, !- Handle
  Surface 14,                             !- Name
  RoofCeiling,                            !- Surface Type
  ,                                       !- Construction Name
  {fe8db591-e644-4cb2-b04f-28b6f30d9d2a}, !- Space Name
  Surface,                                !- Outside Boundary Condition
  {58fa038a-aeec-4bf8-aee8-d5ae87264019}, !- Outside Boundary Condition Object
  NoSun,                                  !- Sun Exposure
  NoWind,                                 !- Wind Exposure
  ,                                       !- View Factor to Ground
  ,                                       !- Number of Vertices
  12.9315688143396, -12.9315688143396, 2.4384, !- X,Y,Z Vertex 1 {m}
  12.9315688143396, 0, 2.4384,            !- X,Y,Z Vertex 2 {m}
  6.46578440716979, 0, 2.4384,            !- X,Y,Z Vertex 3 {m}
  6.46578440716979, -12.9315688143396, 2.4384; !- X,Y,Z Vertex 4 {m}

OS:Surface,
  {a48dbfd1-423f-4462-82dc-2524b0420f9f}, !- Handle
  Surface 15,                             !- Name
  Wall,                                   !- Surface Type
  ,                                       !- Construction Name
  {fe8db591-e644-4cb2-b04f-28b6f30d9d2a}, !- Space Name
  Surface,                                !- Outside Boundary Condition
  {46b9b413-9d91-4a28-812a-61c74d2ba754}, !- Outside Boundary Condition Object
  NoSun,                                  !- Sun Exposure
  NoWind,                                 !- Wind Exposure
  ,                                       !- View Factor to Ground
  ,                                       !- Number of Vertices
  6.46578440716979, 0, 2.4384,            !- X,Y,Z Vertex 1 {m}
  6.46578440716979, 0, 0,                 !- X,Y,Z Vertex 2 {m}
  6.46578440716979, -12.9315688143396, 0, !- X,Y,Z Vertex 3 {m}
  6.46578440716979, -12.9315688143396, 2.4384; !- X,Y,Z Vertex 4 {m}

OS:Surface,
  {69a1a5a3-608e-4384-926d-c501ef82e812}, !- Handle
  Surface 16,                             !- Name
  Wall,                                   !- Surface Type
  ,                                       !- Construction Name
  {fe8db591-e644-4cb2-b04f-28b6f30d9d2a}, !- Space Name
  Surface,                                !- Outside Boundary Condition
  {c5f8dde1-7f44-4741-979e-45c9897fc600}, !- Outside Boundary Condition Object
  NoSun,                                  !- Sun Exposure
  NoWind,                                 !- Wind Exposure
  ,                                       !- View Factor to Ground
  ,                                       !- Number of Vertices
  12.9315688143396, -12.9315688143396, 2.4384, !- X,Y,Z Vertex 1 {m}
  12.9315688143396, -12.9315688143396, 0, !- X,Y,Z Vertex 2 {m}
  12.9315688143396, 0, 0,                 !- X,Y,Z Vertex 3 {m}
  12.9315688143396, 0, 2.4384;            !- X,Y,Z Vertex 4 {m}

OS:Surface,
  {6b4ee3e2-7d6e-400a-99be-a95454b7d271}, !- Handle
  Surface 17,                             !- Name
  Wall,                                   !- Surface Type
  ,                                       !- Construction Name
  {fe8db591-e644-4cb2-b04f-28b6f30d9d2a}, !- Space Name
  Outdoors,                               !- Outside Boundary Condition
  ,                                       !- Outside Boundary Condition Object
  SunExposed,                             !- Sun Exposure
  WindExposed,                            !- Wind Exposure
  ,                                       !- View Factor to Ground
  ,                                       !- Number of Vertices
  6.46578440716979, -12.9315688143396, 2.4384, !- X,Y,Z Vertex 1 {m}
  6.46578440716979, -12.9315688143396, 0, !- X,Y,Z Vertex 2 {m}
  12.9315688143396, -12.9315688143396, 0, !- X,Y,Z Vertex 3 {m}
  12.9315688143396, -12.9315688143396, 2.4384; !- X,Y,Z Vertex 4 {m}

OS:ThermalZone,
  {c2f4a285-f716-42ef-8780-d9b1bac19b20}, !- Handle
  living zone|unit 3,                     !- Name
  ,                                       !- Multiplier
  ,                                       !- Ceiling Height {m}
  ,                                       !- Volume {m3}
  ,                                       !- Floor Area {m2}
  ,                                       !- Zone Inside Convection Algorithm
  ,                                       !- Zone Outside Convection Algorithm
  ,                                       !- Zone Conditioning Equipment List Name
  {f8b385ad-9879-487f-aca9-7583ee8e3cf9}, !- Zone Air Inlet Port List
  {30615316-e596-4d5a-ba05-5dbf8c9cae9e}, !- Zone Air Exhaust Port List
  {295b700d-5713-4c94-8c08-f4b474434d99}, !- Zone Air Node Name
  {499646e7-14e3-4962-a6fd-998ec9e1517b}, !- Zone Return Air Port List
  ,                                       !- Primary Daylighting Control Name
  ,                                       !- Fraction of Zone Controlled by Primary Daylighting Control
  ,                                       !- Secondary Daylighting Control Name
  ,                                       !- Fraction of Zone Controlled by Secondary Daylighting Control
  ,                                       !- Illuminance Map Name
  ,                                       !- Group Rendering Name
  ,                                       !- Thermostat Name
  No;                                     !- Use Ideal Air Loads

OS:Node,
  {7717b8a4-b1d7-4724-b9bf-00ca165df5e3}, !- Handle
  Node 3,                                 !- Name
  {295b700d-5713-4c94-8c08-f4b474434d99}, !- Inlet Port
  ;                                       !- Outlet Port

OS:Connection,
  {295b700d-5713-4c94-8c08-f4b474434d99}, !- Handle
  {53f483b1-bacc-46cb-949a-961884eafc2c}, !- Name
  {c2f4a285-f716-42ef-8780-d9b1bac19b20}, !- Source Object
  11,                                     !- Outlet Port
  {7717b8a4-b1d7-4724-b9bf-00ca165df5e3}, !- Target Object
  2;                                      !- Inlet Port

OS:PortList,
  {f8b385ad-9879-487f-aca9-7583ee8e3cf9}, !- Handle
  {ca5b84ab-7666-4d60-b38e-b0f4b3b6d60a}, !- Name
  {c2f4a285-f716-42ef-8780-d9b1bac19b20}; !- HVAC Component

OS:PortList,
  {30615316-e596-4d5a-ba05-5dbf8c9cae9e}, !- Handle
  {c4419692-2717-4e19-91a6-72e5264955f5}, !- Name
  {c2f4a285-f716-42ef-8780-d9b1bac19b20}; !- HVAC Component

OS:PortList,
  {499646e7-14e3-4962-a6fd-998ec9e1517b}, !- Handle
  {3744fc41-4777-4bd5-b97c-b12bce530f7b}, !- Name
  {c2f4a285-f716-42ef-8780-d9b1bac19b20}; !- HVAC Component

OS:Sizing:Zone,
  {e6a2a64f-f71a-4d49-a9fc-db439dfbe5e8}, !- Handle
  {c2f4a285-f716-42ef-8780-d9b1bac19b20}, !- Zone or ZoneList Name
  SupplyAirTemperature,                   !- Zone Cooling Design Supply Air Temperature Input Method
  14,                                     !- Zone Cooling Design Supply Air Temperature {C}
  11.11,                                  !- Zone Cooling Design Supply Air Temperature Difference {deltaC}