!- NOTE: Auto-generated from /test/osw_files/SFA_8units_2story_SL_UA.osw

OS:Version,
  {3765a294-55e4-44f5-994a-9eca41c46623}, !- Handle
  3.2.1;                                  !- Version Identifier

OS:SimulationControl,
  {d1dfd045-f1a3-45ce-a36b-b4dd25578d57}, !- Handle
  ,                                       !- Do Zone Sizing Calculation
  ,                                       !- Do System Sizing Calculation
  ,                                       !- Do Plant Sizing Calculation
  No;                                     !- Run Simulation for Sizing Periods

OS:Timestep,
  {70b3d643-66c9-41b7-898b-cd3a8b079c7f}, !- Handle
  6;                                      !- Number of Timesteps per Hour

OS:ShadowCalculation,
  {4e2bd245-e878-43d7-8978-3cafb6bbfc7c}, !- Handle
  PolygonClipping,                        !- Shading Calculation Method
  ,                                       !- Shading Calculation Update Frequency Method
  20,                                     !- Shading Calculation Update Frequency
  200,                                    !- Maximum Figures in Shadow Overlap Calculations
  ,                                       !- Polygon Clipping Algorithm
  512,                                    !- Pixel Counting Resolution
  DetailedSkyDiffuseModeling,             !- Sky Diffuse Modeling Algorithm
  No,                                     !- Output External Shading Calculation Results
  No,                                     !- Disable Self-Shading Within Shading Zone Groups
  No;                                     !- Disable Self-Shading From Shading Zone Groups to Other Zones

OS:SurfaceConvectionAlgorithm:Outside,
  {339f0936-a7a0-4bec-b93a-f006bc1d3f78}, !- Handle
  DOE-2;                                  !- Algorithm

OS:SurfaceConvectionAlgorithm:Inside,
  {306e8db1-ecc4-4af7-bf43-fac057ab5f9a}, !- Handle
  TARP;                                   !- Algorithm

OS:ZoneCapacitanceMultiplier:ResearchSpecial,
  {4bf801b0-9df3-4fbb-8515-df378cd3a493}, !- Handle
  ,                                       !- Temperature Capacity Multiplier
  15,                                     !- Humidity Capacity Multiplier
  ;                                       !- Carbon Dioxide Capacity Multiplier

OS:RunPeriod,
  {c11faa2d-a29b-4ebc-8bf6-7ab700c24885}, !- Handle
  Run Period 1,                           !- Name
  1,                                      !- Begin Month
  1,                                      !- Begin Day of Month
  12,                                     !- End Month
  31,                                     !- End Day of Month
  ,                                       !- Use Weather File Holidays and Special Days
  ,                                       !- Use Weather File Daylight Saving Period
  ,                                       !- Apply Weekend Holiday Rule
  ,                                       !- Use Weather File Rain Indicators
  ,                                       !- Use Weather File Snow Indicators
  ;                                       !- Number of Times Runperiod to be Repeated

OS:YearDescription,
  {18c4e0b2-986e-422b-b858-fde02d3dbbb2}, !- Handle
  2007,                                   !- Calendar Year
  ,                                       !- Day of Week for Start Day
  ;                                       !- Is Leap Year

OS:Building,
  {fefecdbd-9b86-489e-be2f-4fc872931688}, !- Handle
  Building 1,                             !- Name
  ,                                       !- Building Sector Type
  0,                                      !- North Axis {deg}
  ,                                       !- Nominal Floor to Floor Height {m}
  ,                                       !- Space Type Name
  ,                                       !- Default Construction Set Name
  ,                                       !- Default Schedule Set Name
  2,                                      !- Standards Number of Stories
  2,                                      !- Standards Number of Above Ground Stories
  ,                                       !- Standards Template
  singlefamilyattached,                   !- Standards Building Type
  8;                                      !- Standards Number of Living Units

OS:AdditionalProperties,
  {edd01b90-b8f8-45b5-b486-54b4ebbba035}, !- Handle
  {fefecdbd-9b86-489e-be2f-4fc872931688}, !- Object Name
  num_units,                              !- Feature Name 1
  Integer,                                !- Feature Data Type 1
  8,                                      !- Feature Value 1
  has_rear_units,                         !- Feature Name 2
  Boolean,                                !- Feature Data Type 2
  false,                                  !- Feature Value 2
  horz_location,                          !- Feature Name 3
  String,                                 !- Feature Data Type 3
  Left,                                   !- Feature Value 3
  num_floors,                             !- Feature Name 4
  Integer,                                !- Feature Data Type 4
  2;                                      !- Feature Value 4

OS:ThermalZone,
  {5eb8862a-7533-41ef-a1e2-1277bae5c05b}, !- Handle
  living zone,                            !- Name
  ,                                       !- Multiplier
  ,                                       !- Ceiling Height {m}
  ,                                       !- Volume {m3}
  ,                                       !- Floor Area {m2}
  ,                                       !- Zone Inside Convection Algorithm
  ,                                       !- Zone Outside Convection Algorithm
  ,                                       !- Zone Conditioning Equipment List Name
  {165bf3b2-13b8-4515-9863-2888d684c505}, !- Zone Air Inlet Port List
  {260bd93d-452e-45e5-b81f-67bc034b4bb7}, !- Zone Air Exhaust Port List
  {1f3ca8fc-4c4a-4995-8549-c6164eb8841b}, !- Zone Air Node Name
  {8d37f507-0368-4349-93ca-93cac22ade12}, !- Zone Return Air Port List
  ,                                       !- Primary Daylighting Control Name
  ,                                       !- Fraction of Zone Controlled by Primary Daylighting Control
  ,                                       !- Secondary Daylighting Control Name
  ,                                       !- Fraction of Zone Controlled by Secondary Daylighting Control
  ,                                       !- Illuminance Map Name
  ,                                       !- Group Rendering Name
  ,                                       !- Thermostat Name
  No;                                     !- Use Ideal Air Loads

OS:Node,
  {b25ac769-0900-46b4-804e-6f4e91411b09}, !- Handle
  Node 1,                                 !- Name
  {1f3ca8fc-4c4a-4995-8549-c6164eb8841b}, !- Inlet Port
  ;                                       !- Outlet Port

OS:Connection,
  {1f3ca8fc-4c4a-4995-8549-c6164eb8841b}, !- Handle
  {5eb8862a-7533-41ef-a1e2-1277bae5c05b}, !- Source Object
  11,                                     !- Outlet Port
  {b25ac769-0900-46b4-804e-6f4e91411b09}, !- Target Object
  2;                                      !- Inlet Port

OS:PortList,
  {165bf3b2-13b8-4515-9863-2888d684c505}, !- Handle
  {5eb8862a-7533-41ef-a1e2-1277bae5c05b}; !- HVAC Component

OS:PortList,
  {260bd93d-452e-45e5-b81f-67bc034b4bb7}, !- Handle
  {5eb8862a-7533-41ef-a1e2-1277bae5c05b}; !- HVAC Component

OS:PortList,
  {8d37f507-0368-4349-93ca-93cac22ade12}, !- Handle
  {5eb8862a-7533-41ef-a1e2-1277bae5c05b}; !- HVAC Component

OS:Sizing:Zone,
  {157a1af6-4bfc-4d66-91ed-3ffc43a1679a}, !- Handle
  {5eb8862a-7533-41ef-a1e2-1277bae5c05b}, !- Zone or ZoneList Name
  SupplyAirTemperature,                   !- Zone Cooling Design Supply Air Temperature Input Method
  14,                                     !- Zone Cooling Design Supply Air Temperature {C}
  11.11,                                  !- Zone Cooling Design Supply Air Temperature Difference {deltaC}
  SupplyAirTemperature,                   !- Zone Heating Design Supply Air Temperature Input Method
  40,                                     !- Zone Heating Design Supply Air Temperature {C}
  11.11,                                  !- Zone Heating Design Supply Air Temperature Difference {deltaC}
  0.0085,                                 !- Zone Cooling Design Supply Air Humidity Ratio {kg-H2O/kg-air}
  0.008,                                  !- Zone Heating Design Supply Air Humidity Ratio {kg-H2O/kg-air}
  ,                                       !- Zone Heating Sizing Factor
  ,                                       !- Zone Cooling Sizing Factor
  DesignDay,                              !- Cooling Design Air Flow Method
  ,                                       !- Cooling Design Air Flow Rate {m3/s}
  ,                                       !- Cooling Minimum Air Flow per Zone Floor Area {m3/s-m2}
  ,                                       !- Cooling Minimum Air Flow {m3/s}
  ,                                       !- Cooling Minimum Air Flow Fraction
  DesignDay,                              !- Heating Design Air Flow Method
  ,                                       !- Heating Design Air Flow Rate {m3/s}
  ,                                       !- Heating Maximum Air Flow per Zone Floor Area {m3/s-m2}
  ,                                       !- Heating Maximum Air Flow {m3/s}
  ,                                       !- Heating Maximum Air Flow Fraction
  No,                                     !- Account for Dedicated Outdoor Air System
  NeutralSupplyAir,                       !- Dedicated Outdoor Air System Control Strategy
  autosize,                               !- Dedicated Outdoor Air Low Setpoint Temperature for Design {C}
  autosize;                               !- Dedicated Outdoor Air High Setpoint Temperature for Design {C}

OS:ZoneHVAC:EquipmentList,
  {6b1a8431-b32c-4c0b-bd0a-1c0acac4197e}, !- Handle
  Zone HVAC Equipment List 1,             !- Name
  {5eb8862a-7533-41ef-a1e2-1277bae5c05b}; !- Thermal Zone

OS:Space,
  {f4d7189d-42bb-407e-a99d-a59bede33bf3}, !- Handle
  living space,                           !- Name
  {589f4fdc-1606-4a1a-a864-03c2b51d5f9a}, !- Space Type Name
  ,                                       !- Default Construction Set Name
  ,                                       !- Default Schedule Set Name
  ,                                       !- Direction of Relative North {deg}
  ,                                       !- X Origin {m}
  ,                                       !- Y Origin {m}
  ,                                       !- Z Origin {m}
  ,                                       !- Building Story Name
  {5eb8862a-7533-41ef-a1e2-1277bae5c05b}, !- Thermal Zone Name
  ,                                       !- Part of Total Floor Area
  ,                                       !- Design Specification Outdoor Air Object Name
  {93a8d94b-bfb1-41ba-b54c-43f9006681bc}; !- Building Unit Name

OS:Surface,
  {7ca6fd62-cbe9-4743-9006-70cd5feea36e}, !- Handle
  Surface 1,                              !- Name
  Floor,                                  !- Surface Type
  ,                                       !- Construction Name
  {f4d7189d-42bb-407e-a99d-a59bede33bf3}, !- Space Name
  Foundation,                             !- Outside Boundary Condition
  ,                                       !- Outside Boundary Condition Object
  NoSun,                                  !- Sun Exposure
  NoWind,                                 !- Wind Exposure
  ,                                       !- View Factor to Ground
  ,                                       !- Number of Vertices
  0, -9.144, 0,                           !- X,Y,Z Vertex 1 {m}
  0, 0, 0,                                !- X,Y,Z Vertex 2 {m}
  4.572, 0, 0,                            !- X,Y,Z Vertex 3 {m}
  4.572, -9.144, 0;                       !- X,Y,Z Vertex 4 {m}

OS:Surface,
  {29e743b3-d41c-4d22-beb8-02a31f4b6b41}, !- Handle
  Surface 2,                              !- Name
  Wall,                                   !- Surface Type
  ,                                       !- Construction Name
  {f4d7189d-42bb-407e-a99d-a59bede33bf3}, !- Space Name
  Outdoors,                               !- Outside Boundary Condition
  ,                                       !- Outside Boundary Condition Object
  SunExposed,                             !- Sun Exposure
  WindExposed,                            !- Wind Exposure
  ,                                       !- View Factor to Ground
  ,                                       !- Number of Vertices
  0, 0, 2.4384,                           !- X,Y,Z Vertex 1 {m}
  0, 0, 0,                                !- X,Y,Z Vertex 2 {m}
  0, -9.144, 0,                           !- X,Y,Z Vertex 3 {m}
  0, -9.144, 2.4384;                      !- X,Y,Z Vertex 4 {m}

OS:Surface,
  {d7d03af6-3012-4ba2-8bdb-31d37daa757a}, !- Handle
  Surface 3,                              !- Name
  Wall,                                   !- Surface Type
  ,                                       !- Construction Name
  {f4d7189d-42bb-407e-a99d-a59bede33bf3}, !- Space Name
  Outdoors,                               !- Outside Boundary Condition
  ,                                       !- Outside Boundary Condition Object
  SunExposed,                             !- Sun Exposure
  WindExposed,                            !- Wind Exposure
  ,                                       !- View Factor to Ground
  ,                                       !- Number of Vertices
  4.572, 0, 2.4384,                       !- X,Y,Z Vertex 1 {m}
  4.572, 0, 0,                            !- X,Y,Z Vertex 2 {m}
  0, 0, 0,                                !- X,Y,Z Vertex 3 {m}
  0, 0, 2.4384;                           !- X,Y,Z Vertex 4 {m}

OS:Surface,
  {dac7f7d9-5037-425a-bb88-8ba90115729b}, !- Handle
  Surface 4,                              !- Name
  Wall,                                   !- Surface Type
  ,                                       !- Construction Name
  {f4d7189d-42bb-407e-a99d-a59bede33bf3}, !- Space Name
  Adiabatic,                              !- Outside Boundary Condition
  ,                                       !- Outside Boundary Condition Object
  NoSun,                                  !- Sun Exposure
  NoWind,                                 !- Wind Exposure
  ,                                       !- View Factor to Ground
  ,                                       !- Number of Vertices
  4.572, -9.144, 2.4384,                  !- X,Y,Z Vertex 1 {m}
  4.572, -9.144, 0,                       !- X,Y,Z Vertex 2 {m}
  4.572, 0, 0,                            !- X,Y,Z Vertex 3 {m}
  4.572, 0, 2.4384;                       !- X,Y,Z Vertex 4 {m}

OS:Surface,
  {0d58e6b6-a741-4c5b-92d8-db38d722314b}, !- Handle
  Surface 5,                              !- Name
  Wall,                                   !- Surface Type
  ,                                       !- Construction Name
  {f4d7189d-42bb-407e-a99d-a59bede33bf3}, !- Space Name
  Outdoors,                               !- Outside Boundary Condition
  ,                                       !- Outside Boundary Condition Object
  SunExposed,                             !- Sun Exposure
  WindExposed,                            !- Wind Exposure
  ,                                       !- View Factor to Ground
  ,                                       !- Number of Vertices
  0, -9.144, 2.4384,                      !- X,Y,Z Vertex 1 {m}
  0, -9.144, 0,                           !- X,Y,Z Vertex 2 {m}
  4.572, -9.144, 0,                       !- X,Y,Z Vertex 3 {m}
  4.572, -9.144, 2.4384;                  !- X,Y,Z Vertex 4 {m}

OS:Surface,
  {50a2e847-48d4-4b59-b999-8a127733821d}, !- Handle
  Surface 6,                              !- Name
  RoofCeiling,                            !- Surface Type
  ,                                       !- Construction Name
  {f4d7189d-42bb-407e-a99d-a59bede33bf3}, !- Space Name
  Surface,                                !- Outside Boundary Condition
  {74fad73b-7b6f-4c7f-ac74-0fd3ef2c6433}, !- Outside Boundary Condition Object
  NoSun,                                  !- Sun Exposure
  NoWind,                                 !- Wind Exposure
  ,                                       !- View Factor to Ground
  ,                                       !- Number of Vertices
  4.572, -9.144, 2.4384,                  !- X,Y,Z Vertex 1 {m}
  4.572, 0, 2.4384,                       !- X,Y,Z Vertex 2 {m}
  0, 0, 2.4384,                           !- X,Y,Z Vertex 3 {m}
  0, -9.144, 2.4384;                      !- X,Y,Z Vertex 4 {m}

OS:SpaceType,
  {589f4fdc-1606-4a1a-a864-03c2b51d5f9a}, !- Handle
  Space Type 1,                           !- Name
  ,                                       !- Default Construction Set Name
  ,                                       !- Default Schedule Set Name
  ,                                       !- Group Rendering Name
  ,                                       !- Design Specification Outdoor Air Object Name
  ,                                       !- Standards Template
  ,                                       !- Standards Building Type
  living;                                 !- Standards Space Type

OS:Space,
  {deee51b1-d045-4ae8-8aa3-37e7c00f1cbb}, !- Handle
  living space|story 2,                   !- Name
  {589f4fdc-1606-4a1a-a864-03c2b51d5f9a}, !- Space Type Name
  ,                                       !- Default Construction Set Name
  ,                                       !- Default Schedule Set Name
  -0,                                     !- Direction of Relative North {deg}
  0,                                      !- X Origin {m}
  0,                                      !- Y Origin {m}
  2.4384,                                 !- Z Origin {m}
  ,                                       !- Building Story Name
  {5eb8862a-7533-41ef-a1e2-1277bae5c05b}, !- Thermal Zone Name
  ,                                       !- Part of Total Floor Area
  ,                                       !- Design Specification Outdoor Air Object Name
  {93a8d94b-bfb1-41ba-b54c-43f9006681bc}; !- Building Unit Name

OS:Surface,
  {0daa1d43-645e-4e1d-893a-fcf8e981026a}, !- Handle
  Surface 7,                              !- Name
  Wall,                                   !- Surface Type
  ,                                       !- Construction Name
  {deee51b1-d045-4ae8-8aa3-37e7c00f1cbb}, !- Space Name
  Outdoors,                               !- Outside Boundary Condition
  ,                                       !- Outside Boundary Condition Object
  SunExposed,                             !- Sun Exposure
  WindExposed,                            !- Wind Exposure
  ,                                       !- View Factor to Ground
  ,                                       !- Number of Vertices
  4.572, 0, 2.4384,                       !- X,Y,Z Vertex 1 {m}
  4.572, 0, 0,                            !- X,Y,Z Vertex 2 {m}
  0, 0, 0,                                !- X,Y,Z Vertex 3 {m}
  0, 0, 2.4384;                           !- X,Y,Z Vertex 4 {m}

OS:Surface,
  {c35f2ba7-3934-48ee-b2a3-c5bcfa81c50a}, !- Handle
  Surface 8,                              !- Name
  RoofCeiling,                            !- Surface Type
  ,                                       !- Construction Name
  {deee51b1-d045-4ae8-8aa3-37e7c00f1cbb}, !- Space Name
  Surface,                                !- Outside Boundary Condition
  {d6718d5f-189e-4bbd-a603-3cf79d175253}, !- Outside Boundary Condition Object
  NoSun,                                  !- Sun Exposure
  NoWind,                                 !- Wind Exposure
  ,                                       !- View Factor to Ground
  ,                                       !- Number of Vertices
  4.572, -9.144, 2.4384,                  !- X,Y,Z Vertex 1 {m}
  4.572, 0, 2.4384,                       !- X,Y,Z Vertex 2 {m}
  0, 0, 2.4384,                           !- X,Y,Z Vertex 3 {m}
  0, -9.144, 2.4384;                      !- X,Y,Z Vertex 4 {m}

OS:Surface,
  {74fad73b-7b6f-4c7f-ac74-0fd3ef2c6433}, !- Handle
  Surface 9,                              !- Name
  Floor,                                  !- Surface Type
  ,                                       !- Construction Name
  {deee51b1-d045-4ae8-8aa3-37e7c00f1cbb}, !- Space Name
  Surface,                                !- Outside Boundary Condition
  {50a2e847-48d4-4b59-b999-8a127733821d}, !- Outside Boundary Condition Object
  NoSun,                                  !- Sun Exposure
  NoWind,                                 !- Wind Exposure
  ,                                       !- View Factor to Ground
  ,                                       !- Number of Vertices
  0, -9.144, 0,                           !- X,Y,Z Vertex 1 {m}
  0, 0, 0,                                !- X,Y,Z Vertex 2 {m}
  4.572, 0, 0,                            !- X,Y,Z Vertex 3 {m}
  4.572, -9.144, 0;                       !- X,Y,Z Vertex 4 {m}

OS:Surface,
  {6f13f58f-0f4c-4de9-8970-3b4b2c8a4ea5}, !- Handle
  Surface 10,                             !- Name
  Wall,                                   !- Surface Type
  ,                                       !- Construction Name
  {deee51b1-d045-4ae8-8aa3-37e7c00f1cbb}, !- Space Name
  Outdoors,                               !- Outside Boundary Condition
  ,                                       !- Outside Boundary Condition Object
  SunExposed,                             !- Sun Exposure
  WindExposed,                            !- Wind Exposure
  ,                                       !- View Factor to Ground
  ,                                       !- Number of Vertices
  0, 0, 2.4384,                           !- X,Y,Z Vertex 1 {m}
  0, 0, 0,                                !- X,Y,Z Vertex 2 {m}
  0, -9.144, 0,                           !- X,Y,Z Vertex 3 {m}
  0, -9.144, 2.4384;                      !- X,Y,Z Vertex 4 {m}

OS:Surface,
  {124f1db6-e2c5-4e3b-83ab-369cfaa7d360}, !- Handle
  Surface 11,                             !- Name
  Wall,                                   !- Surface Type
  ,                                       !- Construction Name
  {deee51b1-d045-4ae8-8aa3-37e7c00f1cbb}, !- Space Name
  Adiabatic,                              !- Outside Boundary Condition
  ,                                       !- Outside Boundary Condition Object
  NoSun,                                  !- Sun Exposure
  NoWind,                                 !- Wind Exposure
  ,                                       !- View Factor to Ground
  ,                                       !- Number of Vertices
  4.572, -9.144, 2.4384,                  !- X,Y,Z Vertex 1 {m}
  4.572, -9.144, 0,                       !- X,Y,Z Vertex 2 {m}
  4.572, 0, 0,                            !- X,Y,Z Vertex 3 {m}
  4.572, 0, 2.4384;                       !- X,Y,Z Vertex 4 {m}

OS:Surface,
  {57d781c0-057e-4cc0-bb8b-af13675ca2bc}, !- Handle
  Surface 12,                             !- Name
  Wall,                                   !- Surface Type
  ,                                       !- Construction Name
  {deee51b1-d045-4ae8-8aa3-37e7c00f1cbb}, !- Space Name
  Outdoors,                               !- Outside Boundary Condition
  ,                                       !- Outside Boundary Condition Object
  SunExposed,                             !- Sun Exposure
  WindExposed,                            !- Wind Exposure
  ,                                       !- View Factor to Ground
  ,                                       !- Number of Vertices
  0, -9.144, 2.4384,                      !- X,Y,Z Vertex 1 {m}
  0, -9.144, 0,                           !- X,Y,Z Vertex 2 {m}
  4.572, -9.144, 0,                       !- X,Y,Z Vertex 3 {m}
  4.572, -9.144, 2.4384;                  !- X,Y,Z Vertex 4 {m}

OS:Surface,
  {d6718d5f-189e-4bbd-a603-3cf79d175253}, !- Handle
  Surface 13,                             !- Name
  Floor,                                  !- Surface Type
  ,                                       !- Construction Name
  {8e8ee3b0-4649-430a-bdf0-31f22cd44a7f}, !- Space Name
  Surface,                                !- Outside Boundary Condition
  {c35f2ba7-3934-48ee-b2a3-c5bcfa81c50a}, !- Outside Boundary Condition Object
  NoSun,                                  !- Sun Exposure
  NoWind,                                 !- Wind Exposure
  ,                                       !- View Factor to Ground
  ,                                       !- Number of Vertices
  0, -9.144, 4.8768,                      !- X,Y,Z Vertex 1 {m}
  0, 0, 4.8768,                           !- X,Y,Z Vertex 2 {m}
  4.572, 0, 4.8768,                       !- X,Y,Z Vertex 3 {m}
  4.572, -9.144, 4.8768;                  !- X,Y,Z Vertex 4 {m}

OS:Surface,
  {1fc87a11-c83b-4da0-b2bc-d7640aec815a}, !- Handle
  Surface 14,                             !- Name
  RoofCeiling,                            !- Surface Type
  ,                                       !- Construction Name
  {8e8ee3b0-4649-430a-bdf0-31f22cd44a7f}, !- Space Name
  Outdoors,                               !- Outside Boundary Condition
  ,                                       !- Outside Boundary Condition Object
  SunExposed,                             !- Sun Exposure
  WindExposed,                            !- Wind Exposure
  ,                                       !- View Factor to Ground
  ,                                       !- Number of Vertices
  0, -4.572, 7.1628,                      !- X,Y,Z Vertex 1 {m}
  4.572, -4.572, 7.1628,                  !- X,Y,Z Vertex 2 {m}
  4.572, 0, 4.8768,                       !- X,Y,Z Vertex 3 {m}
  0, 0, 4.8768;                           !- X,Y,Z Vertex 4 {m}

OS:Surface,
  {a0a8f42d-0700-4036-8bbf-54cc80c5abae}, !- Handle
  Surface 15,                             !- Name
  RoofCeiling,                            !- Surface Type
  ,                                       !- Construction Name
  {8e8ee3b0-4649-430a-bdf0-31f22cd44a7f}, !- Space Name
  Outdoors,                               !- Outside Boundary Condition
  ,                                       !- Outside Boundary Condition Object
  SunExposed,                             !- Sun Exposure
  WindExposed,                            !- Wind Exposure
  ,                                       !- View Factor to Ground
  ,                                       !- Number of Vertices
  4.572, -4.572, 7.1628,                  !- X,Y,Z Vertex 1 {m}
  0, -4.572, 7.1628,                      !- X,Y,Z Vertex 2 {m}
  0, -9.144, 4.8768,                      !- X,Y,Z Vertex 3 {m}
  4.572, -9.144, 4.8768;                  !- X,Y,Z Vertex 4 {m}

OS:Surface,
  {583765f1-c10b-4239-b2a2-39d1896da2b8}, !- Handle
  Surface 16,                             !- Name
  Wall,                                   !- Surface Type
  ,                                       !- Construction Name
  {8e8ee3b0-4649-430a-bdf0-31f22cd44a7f}, !- Space Name
  Outdoors,                               !- Outside Boundary Condition
  ,                                       !- Outside Boundary Condition Object
  SunExposed,                             !- Sun Exposure
  WindExposed,                            !- Wind Exposure
  ,                                       !- View Factor to Ground
  ,                                       !- Number of Vertices
  0, -4.572, 7.1628,                      !- X,Y,Z Vertex 1 {m}
  0, 0, 4.8768,                           !- X,Y,Z Vertex 2 {m}
  0, -9.144, 4.8768;                      !- X,Y,Z Vertex 3 {m}

OS:Surface,
  {df50cf91-e8a8-40c9-a002-844e58b5b122}, !- Handle
  Surface 17,                             !- Name
  Wall,                                   !- Surface Type
  ,                                       !- Construction Name
  {8e8ee3b0-4649-430a-bdf0-31f22cd44a7f}, !- Space Name
  Adiabatic,                              !- Outside Boundary Condition
  ,                                       !- Outside Boundary Condition Object
  NoSun,                                  !- Sun Exposure
  NoWind,                                 !- Wind Exposure
  ,                                       !- View Factor to Ground
  ,                                       !- Number of Vertices
  4.572, -4.572, 7.1628,                  !- X,Y,Z Vertex 1 {m}
  4.572, -9.144, 4.8768,                  !- X,Y,Z Vertex 2 {m}
  4.572, 0, 4.8768;                       !- X,Y,Z Vertex 3 {m}

OS:Space,
  {8e8ee3b0-4649-430a-bdf0-31f22cd44a7f}, !- Handle
  unfinished attic space,                 !- Name
  {4b7ee3ba-e176-416f-862c-9c263850f166}, !- Space Type Name
  ,                                       !- Default Construction Set Name
  ,                                       !- Default Schedule Set Name
  ,                                       !- Direction of Relative North {deg}
  ,                                       !- X Origin {m}
  ,                                       !- Y Origin {m}
  ,                                       !- Z Origin {m}
  ,                                       !- Building Story Name
  {ed075ec3-d767-4326-b7e3-e80716805877}; !- Thermal Zone Name

OS:ThermalZone,
  {ed075ec3-d767-4326-b7e3-e80716805877}, !- Handle
  unfinished attic zone,                  !- Name
  ,                                       !- Multiplier
  ,                                       !- Ceiling Height {m}
  ,                                       !- Volume {m3}
  ,                                       !- Floor Area {m2}
  ,                                       !- Zone Inside Convection Algorithm
  ,                                       !- Zone Outside Convection Algorithm
  ,                                       !- Zone Conditioning Equipment List Name
  {7c7459d0-ecce-466c-b030-aa949397be79}, !- Zone Air Inlet Port List
  {e10f0be6-9d6c-4fb2-8278-76f2ed99d365}, !- Zone Air Exhaust Port List
  {62f32404-6d1c-4850-b255-c8bc87b04580}, !- Zone Air Node Name