!- NOTE: Auto-generated from /test/osw_files/SFD_2000sqft_2story_FB_GRG_UA_3Beds_2Baths_Denver_WHTank_ClothesWasher_GasClothesDryer.osw

OS:Version,
  {5a2f9ff2-6a7a-4707-96e4-da99d4ebf24f}, !- Handle
  2.9.0;                                  !- Version Identifier

OS:SimulationControl,
  {ae1f63f2-217c-4713-ac61-e76cde275106}, !- Handle
  ,                                       !- Do Zone Sizing Calculation
  ,                                       !- Do System Sizing Calculation
  ,                                       !- Do Plant Sizing Calculation
  No;                                     !- Run Simulation for Sizing Periods

OS:Timestep,
  {4fcebbce-b120-47fc-bd0e-5e3372605e60}, !- Handle
  6;                                      !- Number of Timesteps per Hour

OS:ShadowCalculation,
  {80b024b8-f46a-4093-91a5-4a41baca14d5}, !- Handle
  20,                                     !- Calculation Frequency
  200;                                    !- Maximum Figures in Shadow Overlap Calculations

OS:SurfaceConvectionAlgorithm:Outside,
  {c1576d87-ab5d-460e-9856-388e93f9bcc4}, !- Handle
  DOE-2;                                  !- Algorithm

OS:SurfaceConvectionAlgorithm:Inside,
  {0c3095fa-bd4e-412c-a777-9b6785c208c8}, !- Handle
  TARP;                                   !- Algorithm

OS:ZoneCapacitanceMultiplier:ResearchSpecial,
  {31a05038-a5ac-4c86-aa6e-28483f469642}, !- Handle
  ,                                       !- Temperature Capacity Multiplier
  15,                                     !- Humidity Capacity Multiplier
  ;                                       !- Carbon Dioxide Capacity Multiplier

OS:RunPeriod,
  {a1b9c2a4-1af4-4b21-8f00-c7e3d149a8d0}, !- Handle
  Run Period 1,                           !- Name
  1,                                      !- Begin Month
  1,                                      !- Begin Day of Month
  12,                                     !- End Month
  31,                                     !- End Day of Month
  ,                                       !- Use Weather File Holidays and Special Days
  ,                                       !- Use Weather File Daylight Saving Period
  ,                                       !- Apply Weekend Holiday Rule
  ,                                       !- Use Weather File Rain Indicators
  ,                                       !- Use Weather File Snow Indicators
  ;                                       !- Number of Times Runperiod to be Repeated

OS:YearDescription,
  {58459a48-6ef8-4cb2-80bc-3c8e5e2041b8}, !- Handle
  2007,                                   !- Calendar Year
  ,                                       !- Day of Week for Start Day
  ;                                       !- Is Leap Year

OS:ThermalZone,
  {b11174aa-37d0-4d5d-8717-ca0cf600ba95}, !- Handle
  living zone,                            !- Name
  ,                                       !- Multiplier
  ,                                       !- Ceiling Height {m}
  ,                                       !- Volume {m3}
  ,                                       !- Floor Area {m2}
  ,                                       !- Zone Inside Convection Algorithm
  ,                                       !- Zone Outside Convection Algorithm
  ,                                       !- Zone Conditioning Equipment List Name
  {ead74d3e-9411-47e1-8549-9d8d2bb12f3f}, !- Zone Air Inlet Port List
  {5ca05a30-c3c4-444b-a81e-4688451070fc}, !- Zone Air Exhaust Port List
  {8ce8f5c4-ebbb-478f-94e8-984d15614663}, !- Zone Air Node Name
  {6607cba5-9fd6-4e88-9da8-946034d60a83}, !- Zone Return Air Port List
  ,                                       !- Primary Daylighting Control Name
  ,                                       !- Fraction of Zone Controlled by Primary Daylighting Control
  ,                                       !- Secondary Daylighting Control Name
  ,                                       !- Fraction of Zone Controlled by Secondary Daylighting Control
  ,                                       !- Illuminance Map Name
  ,                                       !- Group Rendering Name
  ,                                       !- Thermostat Name
  No;                                     !- Use Ideal Air Loads

OS:Node,
  {e296bf53-09c7-4510-a58a-8d61d0c10949}, !- Handle
  Node 1,                                 !- Name
  {8ce8f5c4-ebbb-478f-94e8-984d15614663}, !- Inlet Port
  ;                                       !- Outlet Port

OS:Connection,
  {8ce8f5c4-ebbb-478f-94e8-984d15614663}, !- Handle
  {8b09963b-8a75-4c0e-bb02-7acb03f81643}, !- Name
  {b11174aa-37d0-4d5d-8717-ca0cf600ba95}, !- Source Object
  11,                                     !- Outlet Port
  {e296bf53-09c7-4510-a58a-8d61d0c10949}, !- Target Object
  2;                                      !- Inlet Port

OS:PortList,
  {ead74d3e-9411-47e1-8549-9d8d2bb12f3f}, !- Handle
  {ecce9dbc-efea-40da-917d-91cb53f214ff}, !- Name
  {b11174aa-37d0-4d5d-8717-ca0cf600ba95}; !- HVAC Component

OS:PortList,
  {5ca05a30-c3c4-444b-a81e-4688451070fc}, !- Handle
  {130deddb-c5ce-481f-83e2-f91b417e839c}, !- Name
  {b11174aa-37d0-4d5d-8717-ca0cf600ba95}; !- HVAC Component

OS:PortList,
  {6607cba5-9fd6-4e88-9da8-946034d60a83}, !- Handle
  {9ee0180a-2662-4d9a-8c93-5c80d60b8307}, !- Name
  {b11174aa-37d0-4d5d-8717-ca0cf600ba95}; !- HVAC Component

OS:Sizing:Zone,
  {2696d3dd-2030-49ee-aaf6-bca8ac7c10ac}, !- Handle
  {b11174aa-37d0-4d5d-8717-ca0cf600ba95}, !- Zone or ZoneList Name
  SupplyAirTemperature,                   !- Zone Cooling Design Supply Air Temperature Input Method
  14,                                     !- Zone Cooling Design Supply Air Temperature {C}
  11.11,                                  !- Zone Cooling Design Supply Air Temperature Difference {deltaC}
  SupplyAirTemperature,                   !- Zone Heating Design Supply Air Temperature Input Method
  40,                                     !- Zone Heating Design Supply Air Temperature {C}
  11.11,                                  !- Zone Heating Design Supply Air Temperature Difference {deltaC}
  0.0085,                                 !- Zone Cooling Design Supply Air Humidity Ratio {kg-H2O/kg-air}
  0.008,                                  !- Zone Heating Design Supply Air Humidity Ratio {kg-H2O/kg-air}
  ,                                       !- Zone Heating Sizing Factor
  ,                                       !- Zone Cooling Sizing Factor
  DesignDay,                              !- Cooling Design Air Flow Method
  ,                                       !- Cooling Design Air Flow Rate {m3/s}
  ,                                       !- Cooling Minimum Air Flow per Zone Floor Area {m3/s-m2}
  ,                                       !- Cooling Minimum Air Flow {m3/s}
  ,                                       !- Cooling Minimum Air Flow Fraction
  DesignDay,                              !- Heating Design Air Flow Method
  ,                                       !- Heating Design Air Flow Rate {m3/s}
  ,                                       !- Heating Maximum Air Flow per Zone Floor Area {m3/s-m2}
  ,                                       !- Heating Maximum Air Flow {m3/s}
  ,                                       !- Heating Maximum Air Flow Fraction
  ,                                       !- Design Zone Air Distribution Effectiveness in Cooling Mode
  ,                                       !- Design Zone Air Distribution Effectiveness in Heating Mode
  No,                                     !- Account for Dedicated Outdoor Air System
  NeutralSupplyAir,                       !- Dedicated Outdoor Air System Control Strategy
  autosize,                               !- Dedicated Outdoor Air Low Setpoint Temperature for Design {C}
  autosize;                               !- Dedicated Outdoor Air High Setpoint Temperature for Design {C}

OS:ZoneHVAC:EquipmentList,
  {5ee610a0-1fcb-450a-b66b-61c8e8b3a1c5}, !- Handle
  Zone HVAC Equipment List 1,             !- Name
  {b11174aa-37d0-4d5d-8717-ca0cf600ba95}; !- Thermal Zone

OS:ThermalZone,
  {3ca3f640-d726-4d2f-9f7c-4e051490f556}, !- Handle
  garage zone,                            !- Name
  ,                                       !- Multiplier
  ,                                       !- Ceiling Height {m}
  ,                                       !- Volume {m3}
  ,                                       !- Floor Area {m2}
  ,                                       !- Zone Inside Convection Algorithm
  ,                                       !- Zone Outside Convection Algorithm
  ,                                       !- Zone Conditioning Equipment List Name
  {3980e742-5979-49a0-bcbd-be28d51d9691}, !- Zone Air Inlet Port List
  {5530b723-9213-464b-bbd7-a3d6e4089f26}, !- Zone Air Exhaust Port List
  {24333644-c1e2-46d0-99f8-2b2133c15e54}, !- Zone Air Node Name
  {57400fd4-2b65-4afb-968a-1c378ffa6e33}, !- Zone Return Air Port List
  ,                                       !- Primary Daylighting Control Name
  ,                                       !- Fraction of Zone Controlled by Primary Daylighting Control
  ,                                       !- Secondary Daylighting Control Name
  ,                                       !- Fraction of Zone Controlled by Secondary Daylighting Control
  ,                                       !- Illuminance Map Name
  ,                                       !- Group Rendering Name
  ,                                       !- Thermostat Name
  No;                                     !- Use Ideal Air Loads

OS:Node,
  {1d618720-1986-43da-b366-611bdc8fc823}, !- Handle
  Node 2,                                 !- Name
  {24333644-c1e2-46d0-99f8-2b2133c15e54}, !- Inlet Port
  ;                                       !- Outlet Port

OS:Connection,
  {24333644-c1e2-46d0-99f8-2b2133c15e54}, !- Handle
  {d80ad469-f920-4a81-85aa-7e0e60253b80}, !- Name
  {3ca3f640-d726-4d2f-9f7c-4e051490f556}, !- Source Object
  11,                                     !- Outlet Port
  {1d618720-1986-43da-b366-611bdc8fc823}, !- Target Object
  2;                                      !- Inlet Port

OS:PortList,
  {3980e742-5979-49a0-bcbd-be28d51d9691}, !- Handle
  {8637b609-b051-4eec-b1dc-d64225b29f0d}, !- Name
  {3ca3f640-d726-4d2f-9f7c-4e051490f556}; !- HVAC Component

OS:PortList,
  {5530b723-9213-464b-bbd7-a3d6e4089f26}, !- Handle
  {3a8629a6-7079-47ec-b1ce-ff5a48d3ca5b}, !- Name
  {3ca3f640-d726-4d2f-9f7c-4e051490f556}; !- HVAC Component

OS:PortList,
  {57400fd4-2b65-4afb-968a-1c378ffa6e33}, !- Handle
  {5fe650fe-6b99-44eb-ac2d-478fd9aa45a6}, !- Name
  {3ca3f640-d726-4d2f-9f7c-4e051490f556}; !- HVAC Component

OS:Sizing:Zone,
  {770129e6-8c49-4a41-a25a-1e397e189d24}, !- Handle
  {3ca3f640-d726-4d2f-9f7c-4e051490f556}, !- Zone or ZoneList Name
  SupplyAirTemperature,                   !- Zone Cooling Design Supply Air Temperature Input Method
  14,                                     !- Zone Cooling Design Supply Air Temperature {C}
  11.11,                                  !- Zone Cooling Design Supply Air Temperature Difference {deltaC}
  SupplyAirTemperature,                   !- Zone Heating Design Supply Air Temperature Input Method
  40,                                     !- Zone Heating Design Supply Air Temperature {C}
  11.11,                                  !- Zone Heating Design Supply Air Temperature Difference {deltaC}
  0.0085,                                 !- Zone Cooling Design Supply Air Humidity Ratio {kg-H2O/kg-air}
  0.008,                                  !- Zone Heating Design Supply Air Humidity Ratio {kg-H2O/kg-air}
  ,                                       !- Zone Heating Sizing Factor
  ,                                       !- Zone Cooling Sizing Factor
  DesignDay,                              !- Cooling Design Air Flow Method
  ,                                       !- Cooling Design Air Flow Rate {m3/s}
  ,                                       !- Cooling Minimum Air Flow per Zone Floor Area {m3/s-m2}
  ,                                       !- Cooling Minimum Air Flow {m3/s}
  ,                                       !- Cooling Minimum Air Flow Fraction
  DesignDay,                              !- Heating Design Air Flow Method
  ,                                       !- Heating Design Air Flow Rate {m3/s}
  ,                                       !- Heating Maximum Air Flow per Zone Floor Area {m3/s-m2}
  ,                                       !- Heating Maximum Air Flow {m3/s}
  ,                                       !- Heating Maximum Air Flow Fraction
  ,                                       !- Design Zone Air Distribution Effectiveness in Cooling Mode
  ,                                       !- Design Zone Air Distribution Effectiveness in Heating Mode
  No,                                     !- Account for Dedicated Outdoor Air System
  NeutralSupplyAir,                       !- Dedicated Outdoor Air System Control Strategy
  autosize,                               !- Dedicated Outdoor Air Low Setpoint Temperature for Design {C}
  autosize;                               !- Dedicated Outdoor Air High Setpoint Temperature for Design {C}

OS:ZoneHVAC:EquipmentList,
  {f7e8b539-9619-4716-a352-2a1ad6a0aca5}, !- Handle
  Zone HVAC Equipment List 2,             !- Name
  {3ca3f640-d726-4d2f-9f7c-4e051490f556}; !- Thermal Zone

OS:Space,
  {718a4d40-8c78-4bf7-8321-086a423da1a6}, !- Handle
  garage space,                           !- Name
  {ac17dad4-a4a5-48de-bef7-886a18a6355a}, !- Space Type Name
  ,                                       !- Default Construction Set Name
  ,                                       !- Default Schedule Set Name
  -0,                                     !- Direction of Relative North {deg}
  0,                                      !- X Origin {m}
  0,                                      !- Y Origin {m}
  0,                                      !- Z Origin {m}
  ,                                       !- Building Story Name
  {3ca3f640-d726-4d2f-9f7c-4e051490f556}; !- Thermal Zone Name

OS:Surface,
  {49430d8d-7093-44cc-9a9b-2bdb029d6089}, !- Handle
  Surface 1,                              !- Name
  Floor,                                  !- Surface Type
  ,                                       !- Construction Name
  {718a4d40-8c78-4bf7-8321-086a423da1a6}, !- Space Name
  Foundation,                             !- Outside Boundary Condition
  ,                                       !- Outside Boundary Condition Object
  NoSun,                                  !- Sun Exposure
  NoWind,                                 !- Wind Exposure
  ,                                       !- View Factor to Ground
  ,                                       !- Number of Vertices
  5.57695129776527, -3.048, 0,            !- X,Y,Z Vertex 1 {m}
  5.57695129776527, 3.048, 0,             !- X,Y,Z Vertex 2 {m}
  11.6729512977653, 3.048, 0,             !- X,Y,Z Vertex 3 {m}
  11.6729512977653, -3.048, 0;            !- X,Y,Z Vertex 4 {m}

OS:Surface,
  {839c916d-0984-4aaa-acc1-94fb8d762144}, !- Handle
  Surface 2,                              !- Name
  Wall,                                   !- Surface Type
  ,                                       !- Construction Name
  {718a4d40-8c78-4bf7-8321-086a423da1a6}, !- Space Name
  Surface,                                !- Outside Boundary Condition
  {93dd35b5-6e28-4bb0-803b-a00d4100bf34}, !- Outside Boundary Condition Object
  NoSun,                                  !- Sun Exposure
  NoWind,                                 !- Wind Exposure
  ,                                       !- View Factor to Ground
  ,                                       !- Number of Vertices
  5.57695129776527, 3.048, 2.4384,        !- X,Y,Z Vertex 1 {m}
  5.57695129776527, 3.048, 0,             !- X,Y,Z Vertex 2 {m}
  5.57695129776527, 0, 0,                 !- X,Y,Z Vertex 3 {m}
  5.57695129776527, 0, 2.4384;            !- X,Y,Z Vertex 4 {m}

OS:Surface,
  {0bc45b2e-7274-4bd0-8d2a-7f912e3a4b2c}, !- Handle
  Surface 3,                              !- Name
  Wall,                                   !- Surface Type
  ,                                       !- Construction Name
  {718a4d40-8c78-4bf7-8321-086a423da1a6}, !- Space Name
  Surface,                                !- Outside Boundary Condition
  {56ec3989-5c60-4166-917f-9555190d69e3}, !- Outside Boundary Condition Object
  NoSun,                                  !- Sun Exposure
  NoWind,                                 !- Wind Exposure
  ,                                       !- View Factor to Ground
  ,                                       !- Number of Vertices
  11.6729512977653, 3.048, 2.4384,        !- X,Y,Z Vertex 1 {m}
  11.6729512977653, 3.048, 0,             !- X,Y,Z Vertex 2 {m}
  5.57695129776527, 3.048, 0,             !- X,Y,Z Vertex 3 {m}
  5.57695129776527, 3.048, 2.4384;        !- X,Y,Z Vertex 4 {m}

OS:Surface,
  {ec68f0d4-7879-4ca9-bfab-d88eb5035ae4}, !- Handle
  Surface 4,                              !- Name
  Wall,                                   !- Surface Type
  ,                                       !- Construction Name
  {718a4d40-8c78-4bf7-8321-086a423da1a6}, !- Space Name
  Outdoors,                               !- Outside Boundary Condition
  ,                                       !- Outside Boundary Condition Object
  SunExposed,                             !- Sun Exposure
  WindExposed,                            !- Wind Exposure
  ,                                       !- View Factor to Ground
  ,                                       !- Number of Vertices
  11.6729512977653, -3.048, 2.4384,       !- X,Y,Z Vertex 1 {m}
  11.6729512977653, -3.048, 0,            !- X,Y,Z Vertex 2 {m}
  11.6729512977653, 3.048, 0,             !- X,Y,Z Vertex 3 {m}
  11.6729512977653, 3.048, 2.4384;        !- X,Y,Z Vertex 4 {m}

OS:Surface,
  {b8c2e153-9e28-409a-9a0e-a4558bc79277}, !- Handle
  Surface 5,                              !- Name
  Wall,                                   !- Surface Type
  ,                                       !- Construction Name
  {718a4d40-8c78-4bf7-8321-086a423da1a6}, !- Space Name
  Outdoors,                               !- Outside Boundary Condition
  ,                                       !- Outside Boundary Condition Object
  SunExposed,                             !- Sun Exposure
  WindExposed,                            !- Wind Exposure
  ,                                       !- View Factor to Ground
  ,                                       !- Number of Vertices
  5.57695129776527, -3.048, 2.4384,       !- X,Y,Z Vertex 1 {m}
  5.57695129776527, -3.048, 0,            !- X,Y,Z Vertex 2 {m}
  11.6729512977653, -3.048, 0,            !- X,Y,Z Vertex 3 {m}
  11.6729512977653, -3.048, 2.4384;       !- X,Y,Z Vertex 4 {m}

OS:Surface,
  {498b7afc-42c9-4644-b4b1-c68bc319c0f5}, !- Handle
  Surface 6,                              !- Name
  RoofCeiling,                            !- Surface Type
  ,                                       !- Construction Name
  {718a4d40-8c78-4bf7-8321-086a423da1a6}, !- Space Name
  Surface,                                !- Outside Boundary Condition
  {fca995cb-1677-453c-98ff-3f86846be10d}, !- Outside Boundary Condition Object
  NoSun,                                  !- Sun Exposure
  NoWind,                                 !- Wind Exposure
  ,                                       !- View Factor to Ground
  ,                                       !- Number of Vertices
  11.6729512977653, -3.048, 2.4384,       !- X,Y,Z Vertex 1 {m}
  11.6729512977653, 3.048, 2.4384,        !- X,Y,Z Vertex 2 {m}
  5.57695129776527, 3.048, 2.4384,        !- X,Y,Z Vertex 3 {m}
  5.57695129776527, -3.048, 2.4384;       !- X,Y,Z Vertex 4 {m}

OS:SpaceType,
  {ac17dad4-a4a5-48de-bef7-886a18a6355a}, !- Handle
  Space Type 1,                           !- Name
  ,                                       !- Default Construction Set Name
  ,                                       !- Default Schedule Set Name
  ,                                       !- Group Rendering Name
  ,                                       !- Design Specification Outdoor Air Object Name
  ,                                       !- Standards Template
  ,                                       !- Standards Building Type
  garage;                                 !- Standards Space Type

OS:Space,
  {ffc4b28d-995c-421d-879d-b5c2f8f055de}, !- Handle
  living space,                           !- Name
  {5c2c81c7-e082-417d-9c5a-df4e9919cde5}, !- Space Type Name
  ,                                       !- Default Construction Set Name
  ,                                       !- Default Schedule Set Name
  -0,                                     !- Direction of Relative North {deg}
  0,                                      !- X Origin {m}
  0,                                      !- Y Origin {m}
  0,                                      !- Z Origin {m}
  ,                                       !- Building Story Name
  {b11174aa-37d0-4d5d-8717-ca0cf600ba95}, !- Thermal Zone Name
  ,                                       !- Part of Total Floor Area
  ,                                       !- Design Specification Outdoor Air Object Name
  {522d050e-dde5-4d66-b863-78404c34054a}; !- Building Unit Name

OS:Surface,
  {12322873-ad29-4d87-802b-cc69a109292b}, !- Handle
  Surface 7,                              !- Name
  Floor,                                  !- Surface Type
  ,                                       !- Construction Name
  {ffc4b28d-995c-421d-879d-b5c2f8f055de}, !- Space Name
  Surface,                                !- Outside Boundary Condition
  {6cb9d2ed-171d-46f1-9416-7d730fe54273}, !- Outside Boundary Condition Object
  NoSun,                                  !- Sun Exposure
  NoWind,                                 !- Wind Exposure
  ,                                       !- View Factor to Ground
  ,                                       !- Number of Vertices
  0, 0, 0,                                !- X,Y,Z Vertex 1 {m}
  0, 5.83647564888264, 0,                 !- X,Y,Z Vertex 2 {m}
  11.6729512977653, 5.83647564888264, 0,  !- X,Y,Z Vertex 3 {m}
  11.6729512977653, 3.048, 0,             !- X,Y,Z Vertex 4 {m}
  5.57695129776527, 3.048, 0,             !- X,Y,Z Vertex 5 {m}
  5.57695129776527, 0, 0;                 !- X,Y,Z Vertex 6 {m}

OS:Surface,
  {5ddcead7-ba1e-4953-be6c-a2734eb09630}, !- Handle
  Surface 8,                              !- Name
  Wall,                                   !- Surface Type
  ,                                       !- Construction Name
  {ffc4b28d-995c-421d-879d-b5c2f8f055de}, !- Space Name
  Outdoors,                               !- Outside Boundary Condition
  ,                                       !- Outside Boundary Condition Object
  SunExposed,                             !- Sun Exposure
  WindExposed,                            !- Wind Exposure
  ,                                       !- View Factor to Ground
  ,                                       !- Number of Vertices
  0, 5.83647564888264, 2.4384,            !- X,Y,Z Vertex 1 {m}
  0, 5.83647564888264, 0,                 !- X,Y,Z Vertex 2 {m}
  0, 0, 0,                                !- X,Y,Z Vertex 3 {m}
  0, 0, 2.4384;                           !- X,Y,Z Vertex 4 {m}

OS:Surface,
  {eee28c9d-e90e-4067-a57f-dde94869e3d9}, !- Handle
  Surface 9,                              !- Name
  Wall,                                   !- Surface Type
  ,                                       !- Construction Name
  {ffc4b28d-995c-421d-879d-b5c2f8f055de}, !- Space Name
  Outdoors,                               !- Outside Boundary Condition
  ,                                       !- Outside Boundary Condition Object
  SunExposed,                             !- Sun Exposure
  WindExposed,                            !- Wind Exposure
  ,                                       !- View Factor to Ground
  ,                                       !- Number of Vertices
  11.6729512977653, 5.83647564888264, 2.4384, !- X,Y,Z Vertex 1 {m}
  11.6729512977653, 5.83647564888264, 0,  !- X,Y,Z Vertex 2 {m}
  0, 5.83647564888264, 0,                 !- X,Y,Z Vertex 3 {m}
  0, 5.83647564888264, 2.4384;            !- X,Y,Z Vertex 4 {m}

OS:Surface,
  {a4a10257-04a2-428d-8ffd-50a6baf1efdc}, !- Handle
  Surface 10,                             !- Name
  Wall,                                   !- Surface Type
  ,                                       !- Construction Name
  {ffc4b28d-995c-421d-879d-b5c2f8f055de}, !- Space Name
  Outdoors,                               !- Outside Boundary Condition
  ,                                       !- Outside Boundary Condition Object
  SunExposed,                             !- Sun Exposure
  WindExposed,                            !- Wind Exposure
  ,                                       !- View Factor to Ground
  ,                                       !- Number of Vertices
  11.6729512977653, 3.048, 2.4384,        !- X,Y,Z Vertex 1 {m}
  11.6729512977653, 3.048, 0,             !- X,Y,Z Vertex 2 {m}
  11.6729512977653, 5.83647564888264, 0,  !- X,Y,Z Vertex 3 {m}
  11.6729512977653, 5.83647564888264, 2.4384; !- X,Y,Z Vertex 4 {m}

OS:Surface,
  {56ec3989-5c60-4166-917f-9555190d69e3}, !- Handle
  Surface 11,                             !- Name
  Wall,                                   !- Surface Type
  ,                                       !- Construction Name
  {ffc4b28d-995c-421d-879d-b5c2f8f055de}, !- Space Name
  Surface,                                !- Outside Boundary Condition
  {0bc45b2e-7274-4bd0-8d2a-7f912e3a4b2c}, !- Outside Boundary Condition Object
  NoSun,                                  !- Sun Exposure
  NoWind,                                 !- Wind Exposure
  ,                                       !- View Factor to Ground
  ,                                       !- Number of Vertices
  5.57695129776527, 3.048, 2.4384,        !- X,Y,Z Vertex 1 {m}
  5.57695129776527, 3.048, 0,             !- X,Y,Z Vertex 2 {m}
  11.6729512977653, 3.048, 0,             !- X,Y,Z Vertex 3 {m}
  11.6729512977653, 3.048, 2.4384;        !- X,Y,Z Vertex 4 {m}

OS:Surface,
  {93dd35b5-6e28-4bb0-803b-a00d4100bf34}, !- Handle
  Surface 12,                             !- Name
  Wall,                                   !- Surface Type
  ,                                       !- Construction Name
  {ffc4b28d-995c-421d-879d-b5c2f8f055de}, !- Space Name
  Surface,                                !- Outside Boundary Condition
  {839c916d-0984-4aaa-acc1-94fb8d762144}, !- Outside Boundary Condition Object
  NoSun,                                  !- Sun Exposure
  NoWind,                                 !- Wind Exposure
  ,                                       !- View Factor to Ground
  ,                                       !- Number of Vertices
  5.57695129776527, 0, 2.4384,            !- X,Y,Z Vertex 1 {m}
  5.57695129776527, 0, 0,                 !- X,Y,Z Vertex 2 {m}
  5.57695129776527, 3.048, 0,             !- X,Y,Z Vertex 3 {m}
  5.57695129776527, 3.048, 2.4384;        !- X,Y,Z Vertex 4 {m}

OS:Surface,
  {a0519ade-a319-4d72-889b-1314cb2f8905}, !- Handle
  Surface 13,                             !- Name
  Wall,                                   !- Surface Type
  ,                                       !- Construction Name
  {ffc4b28d-995c-421d-879d-b5c2f8f055de}, !- Space Name
  Outdoors,                               !- Outside Boundary Condition
  ,                                       !- Outside Boundary Condition Object
  SunExposed,                             !- Sun Exposure
  WindExposed,                            !- Wind Exposure
  ,                                       !- View Factor to Ground
  ,                                       !- Number of Vertices
  0, 0, 2.4384,                           !- X,Y,Z Vertex 1 {m}
  0, 0, 0,                                !- X,Y,Z Vertex 2 {m}
  5.57695129776527, 0, 0,                 !- X,Y,Z Vertex 3 {m}
  5.57695129776527, 0, 2.4384;            !- X,Y,Z Vertex 4 {m}

OS:Surface,
  {ea321eb8-3fad-4d48-8332-494d545f2bf8}, !- Handle
  Surface 14,                             !- Name
  RoofCeiling,                            !- Surface Type
  ,                                       !- Construction Name
  {ffc4b28d-995c-421d-879d-b5c2f8f055de}, !- Space Name
  Surface,                                !- Outside Boundary Condition
  {7d822767-be7e-4272-bb1f-78d258667023}, !- Outside Boundary Condition Object
  NoSun,                                  !- Sun Exposure
  NoWind,                                 !- Wind Exposure
  ,                                       !- View Factor to Ground
  ,                                       !- Number of Vertices
  5.57695129776527, 0, 2.4384,            !- X,Y,Z Vertex 1 {m}
  5.57695129776527, 3.048, 2.4384,        !- X,Y,Z Vertex 2 {m}
  11.6729512977653, 3.048, 2.4384,        !- X,Y,Z Vertex 3 {m}
  11.6729512977653, 5.83647564888264, 2.4384, !- X,Y,Z Vertex 4 {m}
  0, 5.83647564888264, 2.4384,            !- X,Y,Z Vertex 5 {m}
  0, 0, 2.4384;                           !- X,Y,Z Vertex 6 {m}

OS:SpaceType,
  {5c2c81c7-e082-417d-9c5a-df4e9919cde5}, !- Handle
  Space Type 2,                           !- Name
  ,                                       !- Default Construction Set Name
  ,                                       !- Default Schedule Set Name
  ,                                       !- Group Rendering Name
  ,                                       !- Design Specification Outdoor Air Object Name
  ,                                       !- Standards Template
  ,                                       !- Standards Building Type
  living;                                 !- Standards Space Type

OS:Space,
  {cee9b9f3-1206-45ac-8232-3de691e17844}, !- Handle
  living space|story 2,                   !- Name
  {5c2c81c7-e082-417d-9c5a-df4e9919cde5}, !- Space Type Name
  ,                                       !- Default Construction Set Name