!- NOTE: Auto-generated from /test/osw_files/SFD_2story_CS_UA_GRG_ASHPV_FuelTanklessWH.osw

OS:Version,
  {c49cd733-0a36-43aa-8c83-7306c8cd867e}, !- Handle
  2.9.0;                                  !- Version Identifier

OS:SimulationControl,
  {32fdfb5f-19ac-4710-9f5b-062ab9ac118b}, !- Handle
  ,                                       !- Do Zone Sizing Calculation
  ,                                       !- Do System Sizing Calculation
  ,                                       !- Do Plant Sizing Calculation
  No;                                     !- Run Simulation for Sizing Periods

OS:Timestep,
  {6b763fec-d74d-409a-a013-7a68cd169413}, !- Handle
  6;                                      !- Number of Timesteps per Hour

OS:ShadowCalculation,
  {487b598e-ea7b-451e-b4f9-6401f05351ee}, !- Handle
  20,                                     !- Calculation Frequency
  200;                                    !- Maximum Figures in Shadow Overlap Calculations

OS:SurfaceConvectionAlgorithm:Outside,
  {edbc424b-fe97-439f-8d9a-842d7ae0a4a6}, !- Handle
  DOE-2;                                  !- Algorithm

OS:SurfaceConvectionAlgorithm:Inside,
  {e3cd8cbf-ecb7-4954-8ac1-ef28357a91d7}, !- Handle
  TARP;                                   !- Algorithm

OS:ZoneCapacitanceMultiplier:ResearchSpecial,
  {c9fef58f-d713-4a0d-90fa-64d6c0b1d490}, !- Handle
  ,                                       !- Temperature Capacity Multiplier
  15,                                     !- Humidity Capacity Multiplier
  ;                                       !- Carbon Dioxide Capacity Multiplier

OS:RunPeriod,
  {49f2e6ac-8b97-4d92-b92f-0223f9a5d014}, !- Handle
  Run Period 1,                           !- Name
  1,                                      !- Begin Month
  1,                                      !- Begin Day of Month
  12,                                     !- End Month
  31,                                     !- End Day of Month
  ,                                       !- Use Weather File Holidays and Special Days
  ,                                       !- Use Weather File Daylight Saving Period
  ,                                       !- Apply Weekend Holiday Rule
  ,                                       !- Use Weather File Rain Indicators
  ,                                       !- Use Weather File Snow Indicators
  ;                                       !- Number of Times Runperiod to be Repeated

OS:YearDescription,
  {7469c438-4c0c-42a2-a3bd-8d0ab70f30bd}, !- Handle
  2007,                                   !- Calendar Year
  ,                                       !- Day of Week for Start Day
  ;                                       !- Is Leap Year

OS:WeatherFile,
  {c7a58fa9-b32f-4d4c-ae77-4d21cf7edb4c}, !- Handle
  Denver Intl Ap,                         !- City
  CO,                                     !- State Province Region
  USA,                                    !- Country
  TMY3,                                   !- Data Source
  725650,                                 !- WMO Number
  39.83,                                  !- Latitude {deg}
  -104.65,                                !- Longitude {deg}
  -7,                                     !- Time Zone {hr}
  1650,                                   !- Elevation {m}
  file:../weather/USA_CO_Denver.Intl.AP.725650_TMY3.epw, !- Url
  E23378AA;                               !- Checksum

OS:AdditionalProperties,
  {2460117b-a9c0-440c-9327-3db7724a05ec}, !- Handle
  {c7a58fa9-b32f-4d4c-ae77-4d21cf7edb4c}, !- Object Name
  EPWHeaderCity,                          !- Feature Name 1
  String,                                 !- Feature Data Type 1
  Denver Intl Ap,                         !- Feature Value 1
  EPWHeaderState,                         !- Feature Name 2
  String,                                 !- Feature Data Type 2
  CO,                                     !- Feature Value 2
  EPWHeaderCountry,                       !- Feature Name 3
  String,                                 !- Feature Data Type 3
  USA,                                    !- Feature Value 3
  EPWHeaderDataSource,                    !- Feature Name 4
  String,                                 !- Feature Data Type 4
  TMY3,                                   !- Feature Value 4
  EPWHeaderStation,                       !- Feature Name 5
  String,                                 !- Feature Data Type 5
  725650,                                 !- Feature Value 5
  EPWHeaderLatitude,                      !- Feature Name 6
  Double,                                 !- Feature Data Type 6
  39.829999999999998,                     !- Feature Value 6
  EPWHeaderLongitude,                     !- Feature Name 7
  Double,                                 !- Feature Data Type 7
  -104.65000000000001,                    !- Feature Value 7
  EPWHeaderTimezone,                      !- Feature Name 8
  Double,                                 !- Feature Data Type 8
  -7,                                     !- Feature Value 8
  EPWHeaderAltitude,                      !- Feature Name 9
  Double,                                 !- Feature Data Type 9
  5413.3858267716532,                     !- Feature Value 9
  EPWHeaderLocalPressure,                 !- Feature Name 10
  Double,                                 !- Feature Data Type 10
  0.81937567683596546,                    !- Feature Value 10
  EPWHeaderRecordsPerHour,                !- Feature Name 11
  Double,                                 !- Feature Data Type 11
  0,                                      !- Feature Value 11
  EPWDataAnnualAvgDrybulb,                !- Feature Name 12
  Double,                                 !- Feature Data Type 12
  51.575616438356228,                     !- Feature Value 12
  EPWDataAnnualMinDrybulb,                !- Feature Name 13
  Double,                                 !- Feature Data Type 13
  -2.9200000000000017,                    !- Feature Value 13
  EPWDataAnnualMaxDrybulb,                !- Feature Name 14
  Double,                                 !- Feature Data Type 14
  104,                                    !- Feature Value 14
  EPWDataCDD50F,                          !- Feature Name 15
  Double,                                 !- Feature Data Type 15
  3072.2925000000005,                     !- Feature Value 15
  EPWDataCDD65F,                          !- Feature Name 16
  Double,                                 !- Feature Data Type 16
  883.62000000000035,                     !- Feature Value 16
  EPWDataHDD50F,                          !- Feature Name 17
  Double,                                 !- Feature Data Type 17
  2497.1925000000001,                     !- Feature Value 17
  EPWDataHDD65F,                          !- Feature Name 18
  Double,                                 !- Feature Data Type 18
  5783.5200000000013,                     !- Feature Value 18
  EPWDataAnnualAvgWindspeed,              !- Feature Name 19
  Double,                                 !- Feature Data Type 19
  3.9165296803649667,                     !- Feature Value 19
  EPWDataMonthlyAvgDrybulbs,              !- Feature Name 20
  String,                                 !- Feature Data Type 20
  33.4191935483871&#4431.90142857142857&#4443.02620967741937&#4442.48624999999999&#4459.877741935483854&#4473.57574999999997&#4472.07975806451608&#4472.70008064516134&#4466.49200000000006&#4450.079112903225806&#4437.218250000000005&#4434.582177419354835, !- Feature Value 20
  EPWDataGroundMonthlyTemps,              !- Feature Name 21
  String,                                 !- Feature Data Type 21
  44.08306285945173&#4440.89570904991865&#4440.64045432632048&#4442.153016571250646&#4448.225111118704206&#4454.268919273837525&#4459.508577937551024&#4462.82777283423508&#4463.10975667174995&#4460.41014950381947&#4455.304105212311526&#4449.445696474514364, !- Feature Value 21
  EPWDataWSF,                             !- Feature Name 22
  Double,                                 !- Feature Data Type 22
  0.58999999999999997,                    !- Feature Value 22
  EPWDataMonthlyAvgDailyHighDrybulbs,     !- Feature Name 23
  String,                                 !- Feature Data Type 23
  47.41032258064516&#4446.58642857142857&#4455.15032258064517&#4453.708&#4472.80193548387098&#4488.67600000000002&#4486.1858064516129&#4485.87225806451613&#4482.082&#4463.18064516129033&#4448.73400000000001&#4448.87935483870968, !- Feature Value 23
  EPWDataMonthlyAvgDailyLowDrybulbs,      !- Feature Name 24
  String,                                 !- Feature Data Type 24
  19.347741935483874&#4419.856428571428573&#4430.316129032258065&#4431.112&#4447.41612903225806&#4457.901999999999994&#4459.063870967741934&#4460.956774193548384&#4452.352000000000004&#4438.41612903225806&#4427.002000000000002&#4423.02903225806451, !- Feature Value 24
  EPWDesignHeatingDrybulb,                !- Feature Name 25
  Double,                                 !- Feature Data Type 25
  12.02,                                  !- Feature Value 25
  EPWDesignHeatingWindspeed,              !- Feature Name 26
  Double,                                 !- Feature Data Type 26
  2.8062500000000004,                     !- Feature Value 26
  EPWDesignCoolingDrybulb,                !- Feature Name 27
  Double,                                 !- Feature Data Type 27
  91.939999999999998,                     !- Feature Value 27
  EPWDesignCoolingWetbulb,                !- Feature Name 28
  Double,                                 !- Feature Data Type 28
  59.95131430195849,                      !- Feature Value 28
  EPWDesignCoolingHumidityRatio,          !- Feature Name 29
  Double,                                 !- Feature Data Type 29
  0.0059161086834698092,                  !- Feature Value 29
  EPWDesignCoolingWindspeed,              !- Feature Name 30
  Double,                                 !- Feature Data Type 30
  3.7999999999999989,                     !- Feature Value 30
  EPWDesignDailyTemperatureRange,         !- Feature Name 31
  Double,                                 !- Feature Data Type 31
  24.915483870967748,                     !- Feature Value 31
  EPWDesignDehumidDrybulb,                !- Feature Name 32
  Double,                                 !- Feature Data Type 32
  67.996785714285721,                     !- Feature Value 32
  EPWDesignDehumidHumidityRatio,          !- Feature Name 33
  Double,                                 !- Feature Data Type 33
  0.012133744170488724,                   !- Feature Value 33
  EPWDesignCoolingDirectNormal,           !- Feature Name 34
  Double,                                 !- Feature Data Type 34
  985,                                    !- Feature Value 34
  EPWDesignCoolingDiffuseHorizontal,      !- Feature Name 35
  Double,                                 !- Feature Data Type 35
  84;                                     !- Feature Value 35

OS:Site,
  {ccda672d-c717-40e5-a90b-65ba76b3be35}, !- Handle
  Denver Intl Ap_CO_USA,                  !- Name
  39.83,                                  !- Latitude {deg}
  -104.65,                                !- Longitude {deg}
  -7,                                     !- Time Zone {hr}
  1650,                                   !- Elevation {m}
  Suburbs;                                !- Terrain

OS:ClimateZones,
  {05eae340-176f-4955-88f6-aff1e678c73c}, !- Handle
  ,                                       !- Active Institution
  ,                                       !- Active Year
  ,                                       !- Climate Zone Institution Name 1
  ,                                       !- Climate Zone Document Name 1
  ,                                       !- Climate Zone Document Year 1
  ,                                       !- Climate Zone Value 1
  Building America,                       !- Climate Zone Institution Name 2
  ,                                       !- Climate Zone Document Name 2
  0,                                      !- Climate Zone Document Year 2
  Cold;                                   !- Climate Zone Value 2

OS:Site:WaterMainsTemperature,
  {eeaaf6b5-d821-4da2-a769-a900d1a77469}, !- Handle
  Correlation,                            !- Calculation Method
  ,                                       !- Temperature Schedule Name
  10.8753424657535,                       !- Annual Average Outdoor Air Temperature {C}
  23.1524007936508;                       !- Maximum Difference In Monthly Average Outdoor Air Temperatures {deltaC}

OS:RunPeriodControl:DaylightSavingTime,
  {3d1155f1-e3d5-4ae1-9fe1-61fd349bd736}, !- Handle
  4/7,                                    !- Start Date
  10/26;                                  !- End Date

OS:Site:GroundTemperature:Deep,
  {a024989a-bf69-4b7a-a291-e3a0af44f6ef}, !- Handle
  10.8753424657535,                       !- January Deep Ground Temperature {C}
  10.8753424657535,                       !- February Deep Ground Temperature {C}
  10.8753424657535,                       !- March Deep Ground Temperature {C}
  10.8753424657535,                       !- April Deep Ground Temperature {C}
  10.8753424657535,                       !- May Deep Ground Temperature {C}
  10.8753424657535,                       !- June Deep Ground Temperature {C}
  10.8753424657535,                       !- July Deep Ground Temperature {C}
  10.8753424657535,                       !- August Deep Ground Temperature {C}
  10.8753424657535,                       !- September Deep Ground Temperature {C}
  10.8753424657535,                       !- October Deep Ground Temperature {C}
  10.8753424657535,                       !- November Deep Ground Temperature {C}
  10.8753424657535;                       !- December Deep Ground Temperature {C}

OS:ThermalZone,
  {c1ef0b6f-05d2-46a2-bf00-fcc5d73e3423}, !- Handle
  living zone,                            !- Name
  ,                                       !- Multiplier
  ,                                       !- Ceiling Height {m}
  ,                                       !- Volume {m3}
  ,                                       !- Floor Area {m2}
  ,                                       !- Zone Inside Convection Algorithm
  ,                                       !- Zone Outside Convection Algorithm
  ,                                       !- Zone Conditioning Equipment List Name
  {f2421e7b-cb65-4bd2-930e-1efb7bdb5319}, !- Zone Air Inlet Port List
  {3057f35c-6f59-40da-a6a6-c20ca44d54fe}, !- Zone Air Exhaust Port List
  {ea60c02d-403e-4785-b8d5-54fdfeeb0d5c}, !- Zone Air Node Name
  {c6f61218-8b12-4932-943d-fad9e8f90bd8}, !- Zone Return Air Port List
  ,                                       !- Primary Daylighting Control Name
  ,                                       !- Fraction of Zone Controlled by Primary Daylighting Control
  ,                                       !- Secondary Daylighting Control Name
  ,                                       !- Fraction of Zone Controlled by Secondary Daylighting Control
  ,                                       !- Illuminance Map Name
  ,                                       !- Group Rendering Name
  {3f880c62-644e-4550-ab46-6db5ce8ded3f}, !- Thermostat Name
  No;                                     !- Use Ideal Air Loads

OS:Node,
  {7d038326-ee33-4d57-b71d-a426d110b5cf}, !- Handle
  Node 1,                                 !- Name
  {ea60c02d-403e-4785-b8d5-54fdfeeb0d5c}, !- Inlet Port
  ;                                       !- Outlet Port

OS:Connection,
  {ea60c02d-403e-4785-b8d5-54fdfeeb0d5c}, !- Handle
  {6a79219c-9345-43cd-8aa6-6c87d662d9fd}, !- Name
  {c1ef0b6f-05d2-46a2-bf00-fcc5d73e3423}, !- Source Object
  11,                                     !- Outlet Port
  {7d038326-ee33-4d57-b71d-a426d110b5cf}, !- Target Object
  2;                                      !- Inlet Port

OS:PortList,
  {f2421e7b-cb65-4bd2-930e-1efb7bdb5319}, !- Handle
  {a117dbc4-9df5-402c-9694-64717024de2c}, !- Name
  {c1ef0b6f-05d2-46a2-bf00-fcc5d73e3423}, !- HVAC Component
  {57c65ff4-732e-4cb7-9ced-93a8d86eed07}, !- Port 1
  {5b9e3602-b98a-49c9-b8c6-adee8c46942d}; !- Port 2

OS:PortList,
  {3057f35c-6f59-40da-a6a6-c20ca44d54fe}, !- Handle
  {1556f566-3f9b-435d-b0bc-95e3fb53e9d0}, !- Name
  {c1ef0b6f-05d2-46a2-bf00-fcc5d73e3423}; !- HVAC Component

OS:PortList,
  {c6f61218-8b12-4932-943d-fad9e8f90bd8}, !- Handle
  {daf713c8-9328-4ff4-b43b-fc4091429318}, !- Name
  {c1ef0b6f-05d2-46a2-bf00-fcc5d73e3423}, !- HVAC Component
  {0d91c440-7666-4d76-84ac-7fb7baee28f6}, !- Port 1
  {4e2eb8f0-22b1-401d-85ea-88b69d3aff9a}; !- Port 2

OS:Sizing:Zone,
  {27b2ea07-a4c3-4bd4-9a55-1a7aebd89b5f}, !- Handle
  {c1ef0b6f-05d2-46a2-bf00-fcc5d73e3423}, !- Zone or ZoneList Name
  SupplyAirTemperature,                   !- Zone Cooling Design Supply Air Temperature Input Method
  14,                                     !- Zone Cooling Design Supply Air Temperature {C}
  11.11,                                  !- Zone Cooling Design Supply Air Temperature Difference {deltaC}
  SupplyAirTemperature,                   !- Zone Heating Design Supply Air Temperature Input Method
  40,                                     !- Zone Heating Design Supply Air Temperature {C}
  11.11,                                  !- Zone Heating Design Supply Air Temperature Difference {deltaC}
  0.0085,                                 !- Zone Cooling Design Supply Air Humidity Ratio {kg-H2O/kg-air}
  0.008,                                  !- Zone Heating Design Supply Air Humidity Ratio {kg-H2O/kg-air}
  ,                                       !- Zone Heating Sizing Factor
  ,                                       !- Zone Cooling Sizing Factor
  DesignDay,                              !- Cooling Design Air Flow Method
  ,                                       !- Cooling Design Air Flow Rate {m3/s}
  ,                                       !- Cooling Minimum Air Flow per Zone Floor Area {m3/s-m2}
  ,                                       !- Cooling Minimum Air Flow {m3/s}
  ,                                       !- Cooling Minimum Air Flow Fraction
  DesignDay,                              !- Heating Design Air Flow Method
  ,                                       !- Heating Design Air Flow Rate {m3/s}
  ,                                       !- Heating Maximum Air Flow per Zone Floor Area {m3/s-m2}
  ,                                       !- Heating Maximum Air Flow {m3/s}
  ,                                       !- Heating Maximum Air Flow Fraction
  ,                                       !- Design Zone Air Distribution Effectiveness in Cooling Mode
  ,                                       !- Design Zone Air Distribution Effectiveness in Heating Mode
  No,                                     !- Account for Dedicated Outdoor Air System
  NeutralSupplyAir,                       !- Dedicated Outdoor Air System Control Strategy
  autosize,                               !- Dedicated Outdoor Air Low Setpoint Temperature for Design {C}
  autosize;                               !- Dedicated Outdoor Air High Setpoint Temperature for Design {C}

OS:ZoneHVAC:EquipmentList,
  {670b7118-da2a-4711-b1ac-ce9553c82b57}, !- Handle
  Zone HVAC Equipment List 1,             !- Name
  {c1ef0b6f-05d2-46a2-bf00-fcc5d73e3423}, !- Thermal Zone
  SequentialLoad,                         !- Load Distribution Scheme
  {b8204277-31bf-4aad-80c1-bf6c48fca276}, !- Zone Equipment 1
  1,                                      !- Zone Equipment Cooling Sequence 1
  1,                                      !- Zone Equipment Heating or No-Load Sequence 1
  ,                                       !- Zone Equipment Sequential Cooling Fraction Schedule Name 1
  ,                                       !- Zone Equipment Sequential Heating Fraction Schedule Name 1
  {062a6a6e-0652-4de8-aafe-e605a51c3f13}, !- Zone Equipment 2
  2,                                      !- Zone Equipment Cooling Sequence 2
  2,                                      !- Zone Equipment Heating or No-Load Sequence 2
  ,                                       !- Zone Equipment Sequential Cooling Fraction Schedule Name 2
  ;                                       !- Zone Equipment Sequential Heating Fraction Schedule Name 2

OS:ThermalZone,
  {82799c28-b4bf-4909-baeb-75d48cd3d834}, !- Handle
  garage zone,                            !- Name
  ,                                       !- Multiplier
  ,                                       !- Ceiling Height {m}
  ,                                       !- Volume {m3}
  ,                                       !- Floor Area {m2}
  ,                                       !- Zone Inside Convection Algorithm
  ,                                       !- Zone Outside Convection Algorithm
  ,                                       !- Zone Conditioning Equipment List Name
  {2645c2c3-9660-4455-9221-2155475d17ba}, !- Zone Air Inlet Port List
  {43ea8f31-c74f-4b24-a137-74ca07f9852e}, !- Zone Air Exhaust Port List
  {e2155a53-b877-4183-92cf-7a00ca936ff5}, !- Zone Air Node Name
  {fc54a63d-3a39-4515-9bb8-d22a071b859a}, !- Zone Return Air Port List
  ,                                       !- Primary Daylighting Control Name
  ,                                       !- Fraction of Zone Controlled by Primary Daylighting Control
  ,                                       !- Secondary Daylighting Control Name
  ,                                       !- Fraction of Zone Controlled by Secondary Daylighting Control
  ,                                       !- Illuminance Map Name
  ,                                       !- Group Rendering Name
  ,                                       !- Thermostat Name
  No;                                     !- Use Ideal Air Loads

OS:Node,
  {661f7f9c-a38f-4388-b187-3913cfac6a96}, !- Handle
  Node 2,                                 !- Name
  {e2155a53-b877-4183-92cf-7a00ca936ff5}, !- Inlet Port
  ;                                       !- Outlet Port

OS:Connection,
  {e2155a53-b877-4183-92cf-7a00ca936ff5}, !- Handle
  {536aeafd-4a2a-4c7e-87df-8fd3a648267f}, !- Name
  {82799c28-b4bf-4909-baeb-75d48cd3d834}, !- Source Object
  11,                                     !- Outlet Port
  {661f7f9c-a38f-4388-b187-3913cfac6a96}, !- Target Object
  2;                                      !- Inlet Port

OS:PortList,
  {2645c2c3-9660-4455-9221-2155475d17ba}, !- Handle
  {1a391803-b15b-4636-a497-74e8612e1223}, !- Name
  {82799c28-b4bf-4909-baeb-75d48cd3d834}; !- HVAC Component

OS:PortList,
  {43ea8f31-c74f-4b24-a137-74ca07f9852e}, !- Handle
  {4d2ec4bc-eaa5-471b-b2b8-14830ea862f6}, !- Name
  {82799c28-b4bf-4909-baeb-75d48cd3d834}; !- HVAC Component

OS:PortList,
  {fc54a63d-3a39-4515-9bb8-d22a071b859a}, !- Handle
  {4f26ec22-7a84-4692-b2d3-6c0e137e867b}, !- Name
  {82799c28-b4bf-4909-baeb-75d48cd3d834}; !- HVAC Component

OS:Sizing:Zone,
  {4258d9dd-2908-45ee-8f30-6baf0901feca}, !- Handle
  {82799c28-b4bf-4909-baeb-75d48cd3d834}, !- Zone or ZoneList Name
  SupplyAirTemperature,                   !- Zone Cooling Design Supply Air Temperature Input Method
  14,                                     !- Zone Cooling Design Supply Air Temperature {C}
  11.11,                                  !- Zone Cooling Design Supply Air Temperature Difference {deltaC}
  SupplyAirTemperature,                   !- Zone Heating Design Supply Air Temperature Input Method
  40,                                     !- Zone Heating Design Supply Air Temperature {C}
  11.11,                                  !- Zone Heating Design Supply Air Temperature Difference {deltaC}
  0.0085,                                 !- Zone Cooling Design Supply Air Humidity Ratio {kg-H2O/kg-air}
  0.008,                                  !- Zone Heating Design Supply Air Humidity Ratio {kg-H2O/kg-air}
  ,                                       !- Zone Heating Sizing Factor
  ,                                       !- Zone Cooling Sizing Factor
  DesignDay,                              !- Cooling Design Air Flow Method
  ,                                       !- Cooling Design Air Flow Rate {m3/s}
  ,                                       !- Cooling Minimum Air Flow per Zone Floor Area {m3/s-m2}
  ,                                       !- Cooling Minimum Air Flow {m3/s}
  ,                                       !- Cooling Minimum Air Flow Fraction
  DesignDay,                              !- Heating Design Air Flow Method
  ,                                       !- Heating Design Air Flow Rate {m3/s}
  ,                                       !- Heating Maximum Air Flow per Zone Floor Area {m3/s-m2}
  ,                                       !- Heating Maximum Air Flow {m3/s}
  ,                                       !- Heating Maximum Air Flow Fraction
  ,                                       !- Design Zone Air Distribution Effectiveness in Cooling Mode
  ,                                       !- Design Zone Air Distribution Effectiveness in Heating Mode
  No,                                     !- Account for Dedicated Outdoor Air System
  NeutralSupplyAir,                       !- Dedicated Outdoor Air System Control Strategy
  autosize,                               !- Dedicated Outdoor Air Low Setpoint Temperature for Design {C}
  autosize;                               !- Dedicated Outdoor Air High Setpoint Temperature for Design {C}

OS:ZoneHVAC:EquipmentList,
  {6f5e89e4-3291-4e6a-a3f1-c7abf1d83d5e}, !- Handle
  Zone HVAC Equipment List 2,             !- Name
  {82799c28-b4bf-4909-baeb-75d48cd3d834}; !- Thermal Zone

OS:Space,
  {8320a763-4ae0-434a-8cce-9413ea455b98}, !- Handle
  garage space,                           !- Name
  {5a5b6655-e077-4886-a2a0-ec2ca73f5704}, !- Space Type Name
  ,                                       !- Default Construction Set Name
  ,                                       !- Default Schedule Set Name
  -0,                                     !- Direction of Relative North {deg}
  0,                                      !- X Origin {m}
  0,                                      !- Y Origin {m}
  0,                                      !- Z Origin {m}
  ,                                       !- Building Story Name
  {82799c28-b4bf-4909-baeb-75d48cd3d834}; !- Thermal Zone Name

OS:Surface,
  {5f6538fa-8c70-44a5-8680-7c7bf34ff967}, !- Handle
  Surface 1,                              !- Name
  Floor,                                  !- Surface Type
  {6162db65-c286-43f1-8b11-37376777c2cd}, !- Construction Name
  {8320a763-4ae0-434a-8cce-9413ea455b98}, !- Space Name
  Foundation,                             !- Outside Boundary Condition
  {66ab3a0d-7ce7-4e9c-a606-a0dcaea5075c}, !- Outside Boundary Condition Object
  NoSun,                                  !- Sun Exposure
  NoWind,                                 !- Wind Exposure
  ,                                       !- View Factor to Ground
  ,                                       !- Number of Vertices
  12.1802725844098, -3.6576, 0,           !- X,Y,Z Vertex 1 {m}
  12.1802725844098, 3.6576, 0,            !- X,Y,Z Vertex 2 {m}
  15.8378725844098, 3.6576, 0,            !- X,Y,Z Vertex 3 {m}
  15.8378725844098, -3.6576, 0;           !- X,Y,Z Vertex 4 {m}

OS:Surface,
  {b82ade41-9cdc-41f4-9bb7-f290a99b4c13}, !- Handle
  Surface 2,                              !- Name
  Wall,                                   !- Surface Type
  {f57c2847-810f-4ae3-bbc4-154d29e532b6}, !- Construction Name
  {8320a763-4ae0-434a-8cce-9413ea455b98}, !- Space Name
  Surface,                                !- Outside Boundary Condition
  {22a66ded-c39b-40ce-9618-87210be424e9}, !- Outside Boundary Condition Object
  NoSun,                                  !- Sun Exposure
  NoWind,                                 !- Wind Exposure
  ,                                       !- View Factor to Ground
  ,                                       !- Number of Vertices
  12.1802725844098, 3.6576, 2.4384,       !- X,Y,Z Vertex 1 {m}
  12.1802725844098, 3.6576, 0,            !- X,Y,Z Vertex 2 {m}
  12.1802725844098, 0, 0,                 !- X,Y,Z Vertex 3 {m}
  12.1802725844098, 0, 2.4384;            !- X,Y,Z Vertex 4 {m}

OS:Surface,
  {8b9cae55-8574-4459-9392-65de84c590b4}, !- Handle
  Surface 3,                              !- Name
  Wall,                                   !- Surface Type
  {f57c2847-810f-4ae3-bbc4-154d29e532b6}, !- Construction Name
  {8320a763-4ae0-434a-8cce-9413ea455b98}, !- Space Name
  Surface,                                !- Outside Boundary Condition
  {0dc2cf36-f846-4571-a189-df4d9e386b71}, !- Outside Boundary Condition Object
  NoSun,                                  !- Sun Exposure
  NoWind,                                 !- Wind Exposure
  ,                                       !- View Factor to Ground
  ,                                       !- Number of Vertices
  15.8378725844098, 3.6576, 2.4384,       !- X,Y,Z Vertex 1 {m}
  15.8378725844098, 3.6576, 0,            !- X,Y,Z Vertex 2 {m}
  12.1802725844098, 3.6576, 0,            !- X,Y,Z Vertex 3 {m}
  12.1802725844098, 3.6576, 2.4384;       !- X,Y,Z Vertex 4 {m}

OS:Surface,
  {31063704-cd2e-4893-8797-1210ffd6c66c}, !- Handle
  Surface 4,                              !- Name
  Wall,                                   !- Surface Type
  {b8085d6c-c253-40d3-b4ee-5e2ec25de9f0}, !- Construction Name
  {8320a763-4ae0-434a-8cce-9413ea455b98}, !- Space Name
  Outdoors,                               !- Outside Boundary Condition
  ,                                       !- Outside Boundary Condition Object
  SunExposed,                             !- Sun Exposure
  WindExposed,                            !- Wind Exposure
  ,                                       !- View Factor to Ground
  ,                                       !- Number of Vertices
  15.8378725844098, -3.6576, 2.4384,      !- X,Y,Z Vertex 1 {m}
  15.8378725844098, -3.6576, 0,           !- X,Y,Z Vertex 2 {m}