!- NOTE: Auto-generated from /test/osw_files/SFD_2000sqft_2story_FB_UA_Denver_Furnace.osw

OS:Version,
  {f7833f6f-85d6-48e4-9a4e-7daba5835121}, !- Handle
  2.9.1;                                  !- Version Identifier

OS:SimulationControl,
  {5b25d7c1-5c86-4945-acb4-002441fa90ad}, !- Handle
  ,                                       !- Do Zone Sizing Calculation
  ,                                       !- Do System Sizing Calculation
  ,                                       !- Do Plant Sizing Calculation
  No;                                     !- Run Simulation for Sizing Periods

OS:Timestep,
  {ad22a6e6-1f09-41c1-b79c-2e168622dd61}, !- Handle
  6;                                      !- Number of Timesteps per Hour

OS:ShadowCalculation,
  {753d3663-5427-445a-8614-be4e06c625b6}, !- Handle
  20,                                     !- Calculation Frequency
  200;                                    !- Maximum Figures in Shadow Overlap Calculations

OS:SurfaceConvectionAlgorithm:Outside,
  {d36f27e1-2b6a-40cc-82b9-0b58da33dd93}, !- Handle
  DOE-2;                                  !- Algorithm

OS:SurfaceConvectionAlgorithm:Inside,
  {6cd4628b-cdcb-4170-8af4-508ec904b7e9}, !- Handle
  TARP;                                   !- Algorithm

OS:ZoneCapacitanceMultiplier:ResearchSpecial,
  {7e99a11a-3411-42a6-a8f9-1d511fb81ce8}, !- Handle
  ,                                       !- Temperature Capacity Multiplier
  15,                                     !- Humidity Capacity Multiplier
  ;                                       !- Carbon Dioxide Capacity Multiplier

OS:RunPeriod,
  {aa179c5c-312d-4ffb-a1eb-ea8bc7f48abe}, !- Handle
  Run Period 1,                           !- Name
  1,                                      !- Begin Month
  1,                                      !- Begin Day of Month
  12,                                     !- End Month
  31,                                     !- End Day of Month
  ,                                       !- Use Weather File Holidays and Special Days
  ,                                       !- Use Weather File Daylight Saving Period
  ,                                       !- Apply Weekend Holiday Rule
  ,                                       !- Use Weather File Rain Indicators
  ,                                       !- Use Weather File Snow Indicators
  ;                                       !- Number of Times Runperiod to be Repeated

OS:YearDescription,
  {bfd1121c-1b01-4e8d-afc9-902e48ceb298}, !- Handle
  2007,                                   !- Calendar Year
  ,                                       !- Day of Week for Start Day
  ;                                       !- Is Leap Year

OS:ThermalZone,
  {a74df858-d4cd-4ba5-ab0e-07682883220f}, !- Handle
  living zone,                            !- Name
  ,                                       !- Multiplier
  ,                                       !- Ceiling Height {m}
  ,                                       !- Volume {m3}
  ,                                       !- Floor Area {m2}
  ,                                       !- Zone Inside Convection Algorithm
  ,                                       !- Zone Outside Convection Algorithm
  ,                                       !- Zone Conditioning Equipment List Name
  {62ab3e19-e0e9-41ef-a9a4-426bee607fb1}, !- Zone Air Inlet Port List
  {bd0193d5-7efe-4fe4-ab9d-dd063949035c}, !- Zone Air Exhaust Port List
  {04671c19-b2d1-4e08-b245-dfde49263ce6}, !- Zone Air Node Name
  {777f60a6-7743-4898-8e85-3a4a37bd1fc1}, !- Zone Return Air Port List
  ,                                       !- Primary Daylighting Control Name
  ,                                       !- Fraction of Zone Controlled by Primary Daylighting Control
  ,                                       !- Secondary Daylighting Control Name
  ,                                       !- Fraction of Zone Controlled by Secondary Daylighting Control
  ,                                       !- Illuminance Map Name
  ,                                       !- Group Rendering Name
  {54ab83dd-60ec-4b77-b796-41567dcdda24}, !- Thermostat Name
  No;                                     !- Use Ideal Air Loads

OS:Node,
  {0da929a9-ee62-4393-9ccb-4723dd3c7f25}, !- Handle
  Node 1,                                 !- Name
  {04671c19-b2d1-4e08-b245-dfde49263ce6}, !- Inlet Port
  ;                                       !- Outlet Port

OS:Connection,
  {04671c19-b2d1-4e08-b245-dfde49263ce6}, !- Handle
  {1ddc0a8f-720a-4ce1-baf2-a4f09742f9d2}, !- Name
  {a74df858-d4cd-4ba5-ab0e-07682883220f}, !- Source Object
  11,                                     !- Outlet Port
  {0da929a9-ee62-4393-9ccb-4723dd3c7f25}, !- Target Object
  2;                                      !- Inlet Port

OS:PortList,
  {62ab3e19-e0e9-41ef-a9a4-426bee607fb1}, !- Handle
  {61746de4-6ce3-4283-8adb-b3181edf882f}, !- Name
  {a74df858-d4cd-4ba5-ab0e-07682883220f}, !- HVAC Component
  {29854620-e528-4041-ab52-1be347987695}; !- Port 1

OS:PortList,
  {bd0193d5-7efe-4fe4-ab9d-dd063949035c}, !- Handle
  {56ddc59b-d6bf-4536-bdfc-f9b943c6423e}, !- Name
  {a74df858-d4cd-4ba5-ab0e-07682883220f}; !- HVAC Component

OS:PortList,
  {777f60a6-7743-4898-8e85-3a4a37bd1fc1}, !- Handle
  {cefcc8a4-9cb6-4055-a9d2-5d1a4a0f545c}, !- Name
  {a74df858-d4cd-4ba5-ab0e-07682883220f}, !- HVAC Component
  {8f38707f-d82f-4fe7-9743-7e35e7d310b8}; !- Port 1

OS:Sizing:Zone,
  {e8abb6ab-9afe-4435-8a5b-74cfc9600092}, !- Handle
  {a74df858-d4cd-4ba5-ab0e-07682883220f}, !- Zone or ZoneList Name
  SupplyAirTemperature,                   !- Zone Cooling Design Supply Air Temperature Input Method
  14,                                     !- Zone Cooling Design Supply Air Temperature {C}
  11.11,                                  !- Zone Cooling Design Supply Air Temperature Difference {deltaC}
  SupplyAirTemperature,                   !- Zone Heating Design Supply Air Temperature Input Method
  40,                                     !- Zone Heating Design Supply Air Temperature {C}
  11.11,                                  !- Zone Heating Design Supply Air Temperature Difference {deltaC}
  0.0085,                                 !- Zone Cooling Design Supply Air Humidity Ratio {kg-H2O/kg-air}
  0.008,                                  !- Zone Heating Design Supply Air Humidity Ratio {kg-H2O/kg-air}
  ,                                       !- Zone Heating Sizing Factor
  ,                                       !- Zone Cooling Sizing Factor
  DesignDay,                              !- Cooling Design Air Flow Method
  ,                                       !- Cooling Design Air Flow Rate {m3/s}
  ,                                       !- Cooling Minimum Air Flow per Zone Floor Area {m3/s-m2}
  ,                                       !- Cooling Minimum Air Flow {m3/s}
  ,                                       !- Cooling Minimum Air Flow Fraction
  DesignDay,                              !- Heating Design Air Flow Method
  ,                                       !- Heating Design Air Flow Rate {m3/s}
  ,                                       !- Heating Maximum Air Flow per Zone Floor Area {m3/s-m2}
  ,                                       !- Heating Maximum Air Flow {m3/s}
  ,                                       !- Heating Maximum Air Flow Fraction
  ,                                       !- Design Zone Air Distribution Effectiveness in Cooling Mode
  ,                                       !- Design Zone Air Distribution Effectiveness in Heating Mode
  No,                                     !- Account for Dedicated Outdoor Air System
  NeutralSupplyAir,                       !- Dedicated Outdoor Air System Control Strategy
  autosize,                               !- Dedicated Outdoor Air Low Setpoint Temperature for Design {C}
  autosize;                               !- Dedicated Outdoor Air High Setpoint Temperature for Design {C}

OS:ZoneHVAC:EquipmentList,
  {9556ec0d-954f-4602-a538-a473c2f2272e}, !- Handle
  Zone HVAC Equipment List 1,             !- Name
  {a74df858-d4cd-4ba5-ab0e-07682883220f}, !- Thermal Zone
  SequentialLoad,                         !- Load Distribution Scheme
  {20b861e9-d0b9-49b1-9f98-4b6f024bb41e}, !- Zone Equipment 1
  1,                                      !- Zone Equipment Cooling Sequence 1
  1,                                      !- Zone Equipment Heating or No-Load Sequence 1
  ,                                       !- Zone Equipment Sequential Cooling Fraction Schedule Name 1
  ;                                       !- Zone Equipment Sequential Heating Fraction Schedule Name 1

OS:ThermalZone,
  {3971fbb4-bb5a-4ed0-acf4-9e36982c3c35}, !- Handle
  garage zone,                            !- Name
  ,                                       !- Multiplier
  ,                                       !- Ceiling Height {m}
  ,                                       !- Volume {m3}
  ,                                       !- Floor Area {m2}
  ,                                       !- Zone Inside Convection Algorithm
  ,                                       !- Zone Outside Convection Algorithm
  ,                                       !- Zone Conditioning Equipment List Name
  {86309ced-0337-40a7-87d2-e204f9fb9133}, !- Zone Air Inlet Port List
  {a00b5fca-908c-4820-924b-517e0186b7b5}, !- Zone Air Exhaust Port List
  {6248071a-76e2-4f0f-adab-964049231f22}, !- Zone Air Node Name
  {85ddc259-7c60-4810-821d-aa36d0c9d15b}, !- Zone Return Air Port List
  ,                                       !- Primary Daylighting Control Name
  ,                                       !- Fraction of Zone Controlled by Primary Daylighting Control
  ,                                       !- Secondary Daylighting Control Name
  ,                                       !- Fraction of Zone Controlled by Secondary Daylighting Control
  ,                                       !- Illuminance Map Name
  ,                                       !- Group Rendering Name
  ,                                       !- Thermostat Name
  No;                                     !- Use Ideal Air Loads

OS:Node,
  {35ec5d24-7d82-4ff3-b5dd-34f7e912bced}, !- Handle
  Node 2,                                 !- Name
  {6248071a-76e2-4f0f-adab-964049231f22}, !- Inlet Port
  ;                                       !- Outlet Port

OS:Connection,
  {6248071a-76e2-4f0f-adab-964049231f22}, !- Handle
  {d01b2a09-32fd-467f-9739-e821757735ab}, !- Name
  {3971fbb4-bb5a-4ed0-acf4-9e36982c3c35}, !- Source Object
  11,                                     !- Outlet Port
  {35ec5d24-7d82-4ff3-b5dd-34f7e912bced}, !- Target Object
  2;                                      !- Inlet Port

OS:PortList,
  {86309ced-0337-40a7-87d2-e204f9fb9133}, !- Handle
  {3ec10822-8639-4252-b7d1-6dab41197f58}, !- Name
  {3971fbb4-bb5a-4ed0-acf4-9e36982c3c35}; !- HVAC Component

OS:PortList,
  {a00b5fca-908c-4820-924b-517e0186b7b5}, !- Handle
  {1aa8ff4d-ddff-4b63-8d39-773c3ed88ac3}, !- Name
  {3971fbb4-bb5a-4ed0-acf4-9e36982c3c35}; !- HVAC Component

OS:PortList,
  {85ddc259-7c60-4810-821d-aa36d0c9d15b}, !- Handle
  {28de0e96-7bb8-4190-8211-adaebf59dfd4}, !- Name
  {3971fbb4-bb5a-4ed0-acf4-9e36982c3c35}; !- HVAC Component

OS:Sizing:Zone,
  {da23ce8a-8787-42bf-96d8-0d141d133dc4}, !- Handle
  {3971fbb4-bb5a-4ed0-acf4-9e36982c3c35}, !- Zone or ZoneList Name
  SupplyAirTemperature,                   !- Zone Cooling Design Supply Air Temperature Input Method
  14,                                     !- Zone Cooling Design Supply Air Temperature {C}
  11.11,                                  !- Zone Cooling Design Supply Air Temperature Difference {deltaC}
  SupplyAirTemperature,                   !- Zone Heating Design Supply Air Temperature Input Method
  40,                                     !- Zone Heating Design Supply Air Temperature {C}
  11.11,                                  !- Zone Heating Design Supply Air Temperature Difference {deltaC}
  0.0085,                                 !- Zone Cooling Design Supply Air Humidity Ratio {kg-H2O/kg-air}
  0.008,                                  !- Zone Heating Design Supply Air Humidity Ratio {kg-H2O/kg-air}
  ,                                       !- Zone Heating Sizing Factor
  ,                                       !- Zone Cooling Sizing Factor
  DesignDay,                              !- Cooling Design Air Flow Method
  ,                                       !- Cooling Design Air Flow Rate {m3/s}
  ,                                       !- Cooling Minimum Air Flow per Zone Floor Area {m3/s-m2}
  ,                                       !- Cooling Minimum Air Flow {m3/s}
  ,                                       !- Cooling Minimum Air Flow Fraction
  DesignDay,                              !- Heating Design Air Flow Method
  ,                                       !- Heating Design Air Flow Rate {m3/s}
  ,                                       !- Heating Maximum Air Flow per Zone Floor Area {m3/s-m2}
  ,                                       !- Heating Maximum Air Flow {m3/s}
  ,                                       !- Heating Maximum Air Flow Fraction
  ,                                       !- Design Zone Air Distribution Effectiveness in Cooling Mode
  ,                                       !- Design Zone Air Distribution Effectiveness in Heating Mode
  No,                                     !- Account for Dedicated Outdoor Air System
  NeutralSupplyAir,                       !- Dedicated Outdoor Air System Control Strategy
  autosize,                               !- Dedicated Outdoor Air Low Setpoint Temperature for Design {C}
  autosize;                               !- Dedicated Outdoor Air High Setpoint Temperature for Design {C}

OS:ZoneHVAC:EquipmentList,
  {8022c42f-7ca7-43e1-ad84-683dd52a7e59}, !- Handle
  Zone HVAC Equipment List 2,             !- Name
  {3971fbb4-bb5a-4ed0-acf4-9e36982c3c35}; !- Thermal Zone

OS:Space,
  {9ea3d994-18c9-4325-b285-08b759e8bb1b}, !- Handle
  garage space,                           !- Name
  {3335f7c9-62f4-46d4-8739-9eb947cf323b}, !- Space Type Name
  ,                                       !- Default Construction Set Name
  ,                                       !- Default Schedule Set Name
  -0,                                     !- Direction of Relative North {deg}
  0,                                      !- X Origin {m}
  0,                                      !- Y Origin {m}
  0,                                      !- Z Origin {m}
  ,                                       !- Building Story Name
  {3971fbb4-bb5a-4ed0-acf4-9e36982c3c35}; !- Thermal Zone Name

OS:Surface,
  {f658ecde-5339-4cd5-a003-3528252f64f5}, !- Handle
  Surface 1,                              !- Name
  Floor,                                  !- Surface Type
  ,                                       !- Construction Name
  {9ea3d994-18c9-4325-b285-08b759e8bb1b}, !- Space Name
  Foundation,                             !- Outside Boundary Condition
  ,                                       !- Outside Boundary Condition Object
  NoSun,                                  !- Sun Exposure
  NoWind,                                 !- Wind Exposure
  ,                                       !- View Factor to Ground
  ,                                       !- Number of Vertices
  5.57695129776527, -3.048, 0,            !- X,Y,Z Vertex 1 {m}
  5.57695129776527, 3.048, 0,             !- X,Y,Z Vertex 2 {m}
  11.6729512977653, 3.048, 0,             !- X,Y,Z Vertex 3 {m}
  11.6729512977653, -3.048, 0;            !- X,Y,Z Vertex 4 {m}

OS:Surface,
  {15793203-c887-4c62-8188-7fd55b545c92}, !- Handle
  Surface 2,                              !- Name
  Wall,                                   !- Surface Type
  ,                                       !- Construction Name
  {9ea3d994-18c9-4325-b285-08b759e8bb1b}, !- Space Name
  Surface,                                !- Outside Boundary Condition
  {f578b863-3bd3-4033-8827-38023fe6d17e}, !- Outside Boundary Condition Object
  NoSun,                                  !- Sun Exposure
  NoWind,                                 !- Wind Exposure
  ,                                       !- View Factor to Ground
  ,                                       !- Number of Vertices
  5.57695129776527, 3.048, 2.4384,        !- X,Y,Z Vertex 1 {m}
  5.57695129776527, 3.048, 0,             !- X,Y,Z Vertex 2 {m}
  5.57695129776527, 0, 0,                 !- X,Y,Z Vertex 3 {m}
  5.57695129776527, 0, 2.4384;            !- X,Y,Z Vertex 4 {m}

OS:Surface,
  {e007308b-1879-48cf-961d-cef8703aecaf}, !- Handle
  Surface 3,                              !- Name
  Wall,                                   !- Surface Type
  ,                                       !- Construction Name
  {9ea3d994-18c9-4325-b285-08b759e8bb1b}, !- Space Name
  Surface,                                !- Outside Boundary Condition
  {6c99785c-516c-460c-b030-5eb2d5275f00}, !- Outside Boundary Condition Object
  NoSun,                                  !- Sun Exposure
  NoWind,                                 !- Wind Exposure
  ,                                       !- View Factor to Ground
  ,                                       !- Number of Vertices
  11.6729512977653, 3.048, 2.4384,        !- X,Y,Z Vertex 1 {m}
  11.6729512977653, 3.048, 0,             !- X,Y,Z Vertex 2 {m}
  5.57695129776527, 3.048, 0,             !- X,Y,Z Vertex 3 {m}
  5.57695129776527, 3.048, 2.4384;        !- X,Y,Z Vertex 4 {m}

OS:Surface,
  {59e5b8db-4c05-43a1-88c5-c723b90508ba}, !- Handle
  Surface 4,                              !- Name
  Wall,                                   !- Surface Type
  ,                                       !- Construction Name
  {9ea3d994-18c9-4325-b285-08b759e8bb1b}, !- Space Name
  Outdoors,                               !- Outside Boundary Condition
  ,                                       !- Outside Boundary Condition Object
  SunExposed,                             !- Sun Exposure
  WindExposed,                            !- Wind Exposure
  ,                                       !- View Factor to Ground
  ,                                       !- Number of Vertices
  11.6729512977653, -3.048, 2.4384,       !- X,Y,Z Vertex 1 {m}
  11.6729512977653, -3.048, 0,            !- X,Y,Z Vertex 2 {m}
  11.6729512977653, 3.048, 0,             !- X,Y,Z Vertex 3 {m}
  11.6729512977653, 3.048, 2.4384;        !- X,Y,Z Vertex 4 {m}

OS:Surface,
  {84fc811c-40a0-48ad-b693-99b2f661381c}, !- Handle
  Surface 5,                              !- Name
  Wall,                                   !- Surface Type
  ,                                       !- Construction Name
  {9ea3d994-18c9-4325-b285-08b759e8bb1b}, !- Space Name
  Outdoors,                               !- Outside Boundary Condition
  ,                                       !- Outside Boundary Condition Object
  SunExposed,                             !- Sun Exposure
  WindExposed,                            !- Wind Exposure
  ,                                       !- View Factor to Ground
  ,                                       !- Number of Vertices
  5.57695129776527, -3.048, 2.4384,       !- X,Y,Z Vertex 1 {m}
  5.57695129776527, -3.048, 0,            !- X,Y,Z Vertex 2 {m}
  11.6729512977653, -3.048, 0,            !- X,Y,Z Vertex 3 {m}
  11.6729512977653, -3.048, 2.4384;       !- X,Y,Z Vertex 4 {m}

OS:Surface,
  {0c21a567-d769-4dd0-9adb-1b0c45606e79}, !- Handle
  Surface 6,                              !- Name
  RoofCeiling,                            !- Surface Type
  ,                                       !- Construction Name
  {9ea3d994-18c9-4325-b285-08b759e8bb1b}, !- Space Name
  Surface,                                !- Outside Boundary Condition
  {4ec2093d-3b93-4a52-9f75-e0e840888dd6}, !- Outside Boundary Condition Object
  NoSun,                                  !- Sun Exposure
  NoWind,                                 !- Wind Exposure
  ,                                       !- View Factor to Ground
  ,                                       !- Number of Vertices
  11.6729512977653, -3.048, 2.4384,       !- X,Y,Z Vertex 1 {m}
  11.6729512977653, 3.048, 2.4384,        !- X,Y,Z Vertex 2 {m}
  5.57695129776527, 3.048, 2.4384,        !- X,Y,Z Vertex 3 {m}
  5.57695129776527, -3.048, 2.4384;       !- X,Y,Z Vertex 4 {m}

OS:SpaceType,
  {3335f7c9-62f4-46d4-8739-9eb947cf323b}, !- Handle
  Space Type 1,                           !- Name
  ,                                       !- Default Construction Set Name
  ,                                       !- Default Schedule Set Name
  ,                                       !- Group Rendering Name
  ,                                       !- Design Specification Outdoor Air Object Name
  ,                                       !- Standards Template
  ,                                       !- Standards Building Type
  garage;                                 !- Standards Space Type

OS:Space,
  {393174da-0ffd-4be3-b1da-d882ec675018}, !- Handle
  living space,                           !- Name
  {da3853b7-7b46-4571-8b99-0de5db1b907d}, !- Space Type Name
  ,                                       !- Default Construction Set Name
  ,                                       !- Default Schedule Set Name
  -0,                                     !- Direction of Relative North {deg}
  0,                                      !- X Origin {m}
  0,                                      !- Y Origin {m}
  0,                                      !- Z Origin {m}
  ,                                       !- Building Story Name
  {a74df858-d4cd-4ba5-ab0e-07682883220f}, !- Thermal Zone Name
  ,                                       !- Part of Total Floor Area
  ,                                       !- Design Specification Outdoor Air Object Name
  {afc54608-5d97-4aa0-8d2d-74545db3b475}; !- Building Unit Name

OS:Surface,
  {bf81a5dd-ce39-46dd-bff3-998a6021ea31}, !- Handle
  Surface 7,                              !- Name
  Floor,                                  !- Surface Type
  ,                                       !- Construction Name
  {393174da-0ffd-4be3-b1da-d882ec675018}, !- Space Name
  Surface,                                !- Outside Boundary Condition
  {5cd82938-44f8-4e99-af45-e834630a52e9}, !- Outside Boundary Condition Object
  NoSun,                                  !- Sun Exposure
  NoWind,                                 !- Wind Exposure
  ,                                       !- View Factor to Ground
  ,                                       !- Number of Vertices
  0, 0, 0,                                !- X,Y,Z Vertex 1 {m}
  0, 5.83647564888264, 0,                 !- X,Y,Z Vertex 2 {m}
  11.6729512977653, 5.83647564888264, 0,  !- X,Y,Z Vertex 3 {m}
  11.6729512977653, 3.048, 0,             !- X,Y,Z Vertex 4 {m}
  5.57695129776527, 3.048, 0,             !- X,Y,Z Vertex 5 {m}
  5.57695129776527, 0, 0;                 !- X,Y,Z Vertex 6 {m}

OS:Surface,
  {63e3f814-2826-45ad-9c70-4c38ca76c2ce}, !- Handle
  Surface 8,                              !- Name
  Wall,                                   !- Surface Type
  ,                                       !- Construction Name
  {393174da-0ffd-4be3-b1da-d882ec675018}, !- Space Name
  Outdoors,                               !- Outside Boundary Condition
  ,                                       !- Outside Boundary Condition Object
  SunExposed,                             !- Sun Exposure
  WindExposed,                            !- Wind Exposure
  ,                                       !- View Factor to Ground
  ,                                       !- Number of Vertices
  0, 5.83647564888264, 2.4384,            !- X,Y,Z Vertex 1 {m}
  0, 5.83647564888264, 0,                 !- X,Y,Z Vertex 2 {m}
  0, 0, 0,                                !- X,Y,Z Vertex 3 {m}
  0, 0, 2.4384;                           !- X,Y,Z Vertex 4 {m}

OS:Surface,
  {1f7d5339-0324-4670-afd0-11819475947e}, !- Handle
  Surface 9,                              !- Name
  Wall,                                   !- Surface Type
  ,                                       !- Construction Name
  {393174da-0ffd-4be3-b1da-d882ec675018}, !- Space Name
  Outdoors,                               !- Outside Boundary Condition
  ,                                       !- Outside Boundary Condition Object
  SunExposed,                             !- Sun Exposure
  WindExposed,                            !- Wind Exposure
  ,                                       !- View Factor to Ground
  ,                                       !- Number of Vertices
  11.6729512977653, 5.83647564888264, 2.4384, !- X,Y,Z Vertex 1 {m}
  11.6729512977653, 5.83647564888264, 0,  !- X,Y,Z Vertex 2 {m}
  0, 5.83647564888264, 0,                 !- X,Y,Z Vertex 3 {m}
  0, 5.83647564888264, 2.4384;            !- X,Y,Z Vertex 4 {m}

OS:Surface,
  {64af10a8-1a38-4ea8-89c6-4578b8bd76e7}, !- Handle
  Surface 10,                             !- Name
  Wall,                                   !- Surface Type
  ,                                       !- Construction Name
  {393174da-0ffd-4be3-b1da-d882ec675018}, !- Space Name
  Outdoors,                               !- Outside Boundary Condition
  ,                                       !- Outside Boundary Condition Object
  SunExposed,                             !- Sun Exposure
  WindExposed,                            !- Wind Exposure
  ,                                       !- View Factor to Ground
  ,                                       !- Number of Vertices
  11.6729512977653, 3.048, 2.4384,        !- X,Y,Z Vertex 1 {m}
  11.6729512977653, 3.048, 0,             !- X,Y,Z Vertex 2 {m}
  11.6729512977653, 5.83647564888264, 0,  !- X,Y,Z Vertex 3 {m}
  11.6729512977653, 5.83647564888264, 2.4384; !- X,Y,Z Vertex 4 {m}

OS:Surface,
  {6c99785c-516c-460c-b030-5eb2d5275f00}, !- Handle
  Surface 11,                             !- Name
  Wall,                                   !- Surface Type
  ,                                       !- Construction Name
  {393174da-0ffd-4be3-b1da-d882ec675018}, !- Space Name
  Surface,                                !- Outside Boundary Condition
  {e007308b-1879-48cf-961d-cef8703aecaf}, !- Outside Boundary Condition Object
  NoSun,                                  !- Sun Exposure
  NoWind,                                 !- Wind Exposure
  ,                                       !- View Factor to Ground
  ,                                       !- Number of Vertices
  5.57695129776527, 3.048, 2.4384,        !- X,Y,Z Vertex 1 {m}
  5.57695129776527, 3.048, 0,             !- X,Y,Z Vertex 2 {m}
  11.6729512977653, 3.048, 0,             !- X,Y,Z Vertex 3 {m}
  11.6729512977653, 3.048, 2.4384;        !- X,Y,Z Vertex 4 {m}

OS:Surface,
  {f578b863-3bd3-4033-8827-38023fe6d17e}, !- Handle
  Surface 12,                             !- Name
  Wall,                                   !- Surface Type
  ,                                       !- Construction Name
  {393174da-0ffd-4be3-b1da-d882ec675018}, !- Space Name
  Surface,                                !- Outside Boundary Condition
  {15793203-c887-4c62-8188-7fd55b545c92}, !- Outside Boundary Condition Object
  NoSun,                                  !- Sun Exposure
  NoWind,                                 !- Wind Exposure
  ,                                       !- View Factor to Ground
  ,                                       !- Number of Vertices
  5.57695129776527, 0, 2.4384,            !- X,Y,Z Vertex 1 {m}
  5.57695129776527, 0, 0,                 !- X,Y,Z Vertex 2 {m}
  5.57695129776527, 3.048, 0,             !- X,Y,Z Vertex 3 {m}
  5.57695129776527, 3.048, 2.4384;        !- X,Y,Z Vertex 4 {m}

OS:Surface,
  {34fda695-44f3-4f38-ad2b-74bb5f029d8e}, !- Handle
  Surface 13,                             !- Name
  Wall,                                   !- Surface Type
  ,                                       !- Construction Name
  {393174da-0ffd-4be3-b1da-d882ec675018}, !- Space Name
  Outdoors,                               !- Outside Boundary Condition
  ,                                       !- Outside Boundary Condition Object
  SunExposed,                             !- Sun Exposure
  WindExposed,                            !- Wind Exposure
  ,                                       !- View Factor to Ground
  ,                                       !- Number of Vertices
  0, 0, 2.4384,                           !- X,Y,Z Vertex 1 {m}
  0, 0, 0,                                !- X,Y,Z Vertex 2 {m}
  5.57695129776527, 0, 0,                 !- X,Y,Z Vertex 3 {m}
  5.57695129776527, 0, 2.4384;            !- X,Y,Z Vertex 4 {m}

OS:Surface,
  {6ce145fb-ebf3-46cc-b663-e7f9de6470c7}, !- Handle
  Surface 14,                             !- Name
  RoofCeiling,                            !- Surface Type
  ,                                       !- Construction Name
  {393174da-0ffd-4be3-b1da-d882ec675018}, !- Space Name
  Surface,                                !- Outside Boundary Condition
  {bfca68db-7703-49bb-9822-abebd5a3b68d}, !- Outside Boundary Condition Object
  NoSun,                                  !- Sun Exposure
  NoWind,                                 !- Wind Exposure
  ,                                       !- View Factor to Ground
  ,                                       !- Number of Vertices
  5.57695129776527, 0, 2.4384,            !- X,Y,Z Vertex 1 {m}
  5.57695129776527, 3.048, 2.4384,        !- X,Y,Z Vertex 2 {m}
  11.6729512977653, 3.048, 2.4384,        !- X,Y,Z Vertex 3 {m}
  11.6729512977653, 5.83647564888264, 2.4384, !- X,Y,Z Vertex 4 {m}
  0, 5.83647564888264, 2.4384,            !- X,Y,Z Vertex 5 {m}
  0, 0, 2.4384;                           !- X,Y,Z Vertex 6 {m}

OS:SpaceType,
  {da3853b7-7b46-4571-8b99-0de5db1b907d}, !- Handle
  Space Type 2,                           !- Name
  ,                                       !- Default Construction Set Name
  ,                                       !- Default Schedule Set Name