!- NOTE: Auto-generated from /test/osw_files/SFD_HVACSizing_Load_2story_UB_GRG_FA_ASHP_DuctsInUB.osw

OS:Version,
  {a364492d-6eaa-4841-a122-e5ed536ba291}, !- Handle
  2.9.0;                                  !- Version Identifier

OS:SimulationControl,
  {07cabd70-cb29-4104-8417-85451cb76114}, !- Handle
  ,                                       !- Do Zone Sizing Calculation
  ,                                       !- Do System Sizing Calculation
  ,                                       !- Do Plant Sizing Calculation
  No;                                     !- Run Simulation for Sizing Periods

OS:Timestep,
  {52a24669-11f6-4646-b825-9f0d220dccbf}, !- Handle
  6;                                      !- Number of Timesteps per Hour

OS:ShadowCalculation,
  {a85998cf-93bb-4a20-9d97-2ac68946ddfd}, !- Handle
  20,                                     !- Calculation Frequency
  200;                                    !- Maximum Figures in Shadow Overlap Calculations

OS:SurfaceConvectionAlgorithm:Outside,
  {fbae1235-c76b-4fcc-8ae4-660dd41d3c87}, !- Handle
  DOE-2;                                  !- Algorithm

OS:SurfaceConvectionAlgorithm:Inside,
  {97523ea3-7400-415b-8ae6-c564d50d64eb}, !- Handle
  TARP;                                   !- Algorithm

OS:ZoneCapacitanceMultiplier:ResearchSpecial,
  {a050d8df-1078-4b70-ab48-68d12c93aa63}, !- Handle
  ,                                       !- Temperature Capacity Multiplier
  15,                                     !- Humidity Capacity Multiplier
  ;                                       !- Carbon Dioxide Capacity Multiplier

OS:RunPeriod,
  {c231d513-c9f5-426b-b974-2b9039597c8d}, !- Handle
  Run Period 1,                           !- Name
  1,                                      !- Begin Month
  1,                                      !- Begin Day of Month
  12,                                     !- End Month
  31,                                     !- End Day of Month
  ,                                       !- Use Weather File Holidays and Special Days
  ,                                       !- Use Weather File Daylight Saving Period
  ,                                       !- Apply Weekend Holiday Rule
  ,                                       !- Use Weather File Rain Indicators
  ,                                       !- Use Weather File Snow Indicators
  ;                                       !- Number of Times Runperiod to be Repeated

OS:YearDescription,
  {7f4ed256-7cd6-477c-9afe-d28bd5e4878b}, !- Handle
  2007,                                   !- Calendar Year
  ,                                       !- Day of Week for Start Day
  ;                                       !- Is Leap Year

OS:WeatherFile,
  {c6da6dba-2bdd-4a8b-8a83-067184314202}, !- Handle
  Denver Intl Ap,                         !- City
  CO,                                     !- State Province Region
  USA,                                    !- Country
  TMY3,                                   !- Data Source
  725650,                                 !- WMO Number
  39.83,                                  !- Latitude {deg}
  -104.65,                                !- Longitude {deg}
  -7,                                     !- Time Zone {hr}
  1650,                                   !- Elevation {m}
  file:../weather/USA_CO_Denver.Intl.AP.725650_TMY3.epw, !- Url
  E23378AA;                               !- Checksum

OS:AdditionalProperties,
  {ebf41be4-f843-41c6-ac8c-2b2e597adf56}, !- Handle
  {c6da6dba-2bdd-4a8b-8a83-067184314202}, !- Object Name
  EPWHeaderCity,                          !- Feature Name 1
  String,                                 !- Feature Data Type 1
  Denver Intl Ap,                         !- Feature Value 1
  EPWHeaderState,                         !- Feature Name 2
  String,                                 !- Feature Data Type 2
  CO,                                     !- Feature Value 2
  EPWHeaderCountry,                       !- Feature Name 3
  String,                                 !- Feature Data Type 3
  USA,                                    !- Feature Value 3
  EPWHeaderDataSource,                    !- Feature Name 4
  String,                                 !- Feature Data Type 4
  TMY3,                                   !- Feature Value 4
  EPWHeaderStation,                       !- Feature Name 5
  String,                                 !- Feature Data Type 5
  725650,                                 !- Feature Value 5
  EPWHeaderLatitude,                      !- Feature Name 6
  Double,                                 !- Feature Data Type 6
  39.829999999999998,                     !- Feature Value 6
  EPWHeaderLongitude,                     !- Feature Name 7
  Double,                                 !- Feature Data Type 7
  -104.65000000000001,                    !- Feature Value 7
  EPWHeaderTimezone,                      !- Feature Name 8
  Double,                                 !- Feature Data Type 8
  -7,                                     !- Feature Value 8
  EPWHeaderAltitude,                      !- Feature Name 9
  Double,                                 !- Feature Data Type 9
  5413.3858267716532,                     !- Feature Value 9
  EPWHeaderLocalPressure,                 !- Feature Name 10
  Double,                                 !- Feature Data Type 10
  0.81937567683596546,                    !- Feature Value 10
  EPWHeaderRecordsPerHour,                !- Feature Name 11
  Double,                                 !- Feature Data Type 11
  0,                                      !- Feature Value 11
  EPWDataAnnualAvgDrybulb,                !- Feature Name 12
  Double,                                 !- Feature Data Type 12
  51.575616438356228,                     !- Feature Value 12
  EPWDataAnnualMinDrybulb,                !- Feature Name 13
  Double,                                 !- Feature Data Type 13
  -2.9200000000000017,                    !- Feature Value 13
  EPWDataAnnualMaxDrybulb,                !- Feature Name 14
  Double,                                 !- Feature Data Type 14
  104,                                    !- Feature Value 14
  EPWDataCDD50F,                          !- Feature Name 15
  Double,                                 !- Feature Data Type 15
  3072.2925000000005,                     !- Feature Value 15
  EPWDataCDD65F,                          !- Feature Name 16
  Double,                                 !- Feature Data Type 16
  883.62000000000035,                     !- Feature Value 16
  EPWDataHDD50F,                          !- Feature Name 17
  Double,                                 !- Feature Data Type 17
  2497.1925000000001,                     !- Feature Value 17
  EPWDataHDD65F,                          !- Feature Name 18
  Double,                                 !- Feature Data Type 18
  5783.5200000000013,                     !- Feature Value 18
  EPWDataAnnualAvgWindspeed,              !- Feature Name 19
  Double,                                 !- Feature Data Type 19
  3.9165296803649667,                     !- Feature Value 19
  EPWDataMonthlyAvgDrybulbs,              !- Feature Name 20
  String,                                 !- Feature Data Type 20
  33.4191935483871&#4431.90142857142857&#4443.02620967741937&#4442.48624999999999&#4459.877741935483854&#4473.57574999999997&#4472.07975806451608&#4472.70008064516134&#4466.49200000000006&#4450.079112903225806&#4437.218250000000005&#4434.582177419354835, !- Feature Value 20
  EPWDataGroundMonthlyTemps,              !- Feature Name 21
  String,                                 !- Feature Data Type 21
  44.08306285945173&#4440.89570904991865&#4440.64045432632048&#4442.153016571250646&#4448.225111118704206&#4454.268919273837525&#4459.508577937551024&#4462.82777283423508&#4463.10975667174995&#4460.41014950381947&#4455.304105212311526&#4449.445696474514364, !- Feature Value 21
  EPWDataWSF,                             !- Feature Name 22
  Double,                                 !- Feature Data Type 22
  0.58999999999999997,                    !- Feature Value 22
  EPWDataMonthlyAvgDailyHighDrybulbs,     !- Feature Name 23
  String,                                 !- Feature Data Type 23
  47.41032258064516&#4446.58642857142857&#4455.15032258064517&#4453.708&#4472.80193548387098&#4488.67600000000002&#4486.1858064516129&#4485.87225806451613&#4482.082&#4463.18064516129033&#4448.73400000000001&#4448.87935483870968, !- Feature Value 23
  EPWDataMonthlyAvgDailyLowDrybulbs,      !- Feature Name 24
  String,                                 !- Feature Data Type 24
  19.347741935483874&#4419.856428571428573&#4430.316129032258065&#4431.112&#4447.41612903225806&#4457.901999999999994&#4459.063870967741934&#4460.956774193548384&#4452.352000000000004&#4438.41612903225806&#4427.002000000000002&#4423.02903225806451, !- Feature Value 24
  EPWDesignHeatingDrybulb,                !- Feature Name 25
  Double,                                 !- Feature Data Type 25
  12.02,                                  !- Feature Value 25
  EPWDesignHeatingWindspeed,              !- Feature Name 26
  Double,                                 !- Feature Data Type 26
  2.8062500000000004,                     !- Feature Value 26
  EPWDesignCoolingDrybulb,                !- Feature Name 27
  Double,                                 !- Feature Data Type 27
  91.939999999999998,                     !- Feature Value 27
  EPWDesignCoolingWetbulb,                !- Feature Name 28
  Double,                                 !- Feature Data Type 28
  59.95131430195849,                      !- Feature Value 28
  EPWDesignCoolingHumidityRatio,          !- Feature Name 29
  Double,                                 !- Feature Data Type 29
  0.0059161086834698092,                  !- Feature Value 29
  EPWDesignCoolingWindspeed,              !- Feature Name 30
  Double,                                 !- Feature Data Type 30
  3.7999999999999989,                     !- Feature Value 30
  EPWDesignDailyTemperatureRange,         !- Feature Name 31
  Double,                                 !- Feature Data Type 31
  24.915483870967748,                     !- Feature Value 31
  EPWDesignDehumidDrybulb,                !- Feature Name 32
  Double,                                 !- Feature Data Type 32
  67.996785714285721,                     !- Feature Value 32
  EPWDesignDehumidHumidityRatio,          !- Feature Name 33
  Double,                                 !- Feature Data Type 33
  0.012133744170488724,                   !- Feature Value 33
  EPWDesignCoolingDirectNormal,           !- Feature Name 34
  Double,                                 !- Feature Data Type 34
  985,                                    !- Feature Value 34
  EPWDesignCoolingDiffuseHorizontal,      !- Feature Name 35
  Double,                                 !- Feature Data Type 35
  84;                                     !- Feature Value 35

OS:Site,
  {642036c6-c5c1-491b-9624-f08d37397fc1}, !- Handle
  Denver Intl Ap_CO_USA,                  !- Name
  39.83,                                  !- Latitude {deg}
  -104.65,                                !- Longitude {deg}
  -7,                                     !- Time Zone {hr}
  1650,                                   !- Elevation {m}
  Suburbs;                                !- Terrain

OS:ClimateZones,
  {20002fc3-41dd-4f4b-9b88-2071f74dd91d}, !- Handle
  ,                                       !- Active Institution
  ,                                       !- Active Year
  ,                                       !- Climate Zone Institution Name 1
  ,                                       !- Climate Zone Document Name 1
  ,                                       !- Climate Zone Document Year 1
  ,                                       !- Climate Zone Value 1
  Building America,                       !- Climate Zone Institution Name 2
  ,                                       !- Climate Zone Document Name 2
  0,                                      !- Climate Zone Document Year 2
  Cold;                                   !- Climate Zone Value 2

OS:Site:WaterMainsTemperature,
  {ad217a7b-58b4-4949-b6da-2f8c3ea7a12f}, !- Handle
  Correlation,                            !- Calculation Method
  ,                                       !- Temperature Schedule Name
  10.8753424657535,                       !- Annual Average Outdoor Air Temperature {C}
  23.1524007936508;                       !- Maximum Difference In Monthly Average Outdoor Air Temperatures {deltaC}

OS:RunPeriodControl:DaylightSavingTime,
  {60abfd84-1d5b-4967-aaa1-12e12039fdaf}, !- Handle
  3/12,                                   !- Start Date
  11/5;                                   !- End Date

OS:Site:GroundTemperature:Deep,
  {f350940e-20f9-43b8-86ec-e2f5220d28a5}, !- Handle
  10.8753424657535,                       !- January Deep Ground Temperature {C}
  10.8753424657535,                       !- February Deep Ground Temperature {C}
  10.8753424657535,                       !- March Deep Ground Temperature {C}
  10.8753424657535,                       !- April Deep Ground Temperature {C}
  10.8753424657535,                       !- May Deep Ground Temperature {C}
  10.8753424657535,                       !- June Deep Ground Temperature {C}
  10.8753424657535,                       !- July Deep Ground Temperature {C}
  10.8753424657535,                       !- August Deep Ground Temperature {C}
  10.8753424657535,                       !- September Deep Ground Temperature {C}
  10.8753424657535,                       !- October Deep Ground Temperature {C}
  10.8753424657535,                       !- November Deep Ground Temperature {C}
  10.8753424657535;                       !- December Deep Ground Temperature {C}

OS:Building,
  {8e59a308-9776-4f43-a878-11798919bfad}, !- Handle
  Building 1,                             !- Name
  ,                                       !- Building Sector Type
  22.5,                                   !- North Axis {deg}
  ,                                       !- Nominal Floor to Floor Height {m}
  ,                                       !- Space Type Name
  ,                                       !- Default Construction Set Name
  ,                                       !- Default Schedule Set Name
  3,                                      !- Standards Number of Stories
  3,                                      !- Standards Number of Above Ground Stories
  ,                                       !- Standards Template
  singlefamilydetached,                   !- Standards Building Type
  1;                                      !- Standards Number of Living Units

OS:AdditionalProperties,
  {30fb1fb6-4286-4416-ac15-7ea7df0a92bd}, !- Handle
  {8e59a308-9776-4f43-a878-11798919bfad}, !- Object Name
  Total Units Modeled,                    !- Feature Name 1
  Integer,                                !- Feature Data Type 1
  1,                                      !- Feature Value 1
  has_water_heater_flue,                  !- Feature Name 2
  Boolean,                                !- Feature Data Type 2
  true;                                   !- Feature Value 2

OS:ThermalZone,
  {9eb6fa41-afed-415d-ab93-b367523c48e3}, !- Handle
  living zone,                            !- Name
  ,                                       !- Multiplier
  ,                                       !- Ceiling Height {m}
  ,                                       !- Volume {m3}
  ,                                       !- Floor Area {m2}
  ,                                       !- Zone Inside Convection Algorithm
  ,                                       !- Zone Outside Convection Algorithm
  ,                                       !- Zone Conditioning Equipment List Name
  {0de1d872-203d-49b2-a265-bd406f543cd7}, !- Zone Air Inlet Port List
  {59ed6821-3664-43ea-9c0e-c9a5cb1bcc12}, !- Zone Air Exhaust Port List
  {047d97bb-94ad-4bd3-832c-32f0aa2ad50a}, !- Zone Air Node Name
  {030e6674-7e6c-473f-9ef9-770178e61745}, !- Zone Return Air Port List
  ,                                       !- Primary Daylighting Control Name
  ,                                       !- Fraction of Zone Controlled by Primary Daylighting Control
  ,                                       !- Secondary Daylighting Control Name
  ,                                       !- Fraction of Zone Controlled by Secondary Daylighting Control
  ,                                       !- Illuminance Map Name
  ,                                       !- Group Rendering Name
  {eb3a8aee-aa5a-4c76-b908-028ca871e27a}, !- Thermostat Name
  No;                                     !- Use Ideal Air Loads

OS:Node,
  {dbeec184-889e-4b2e-adca-daa612e024b8}, !- Handle
  Node 1,                                 !- Name
  {047d97bb-94ad-4bd3-832c-32f0aa2ad50a}, !- Inlet Port
  ;                                       !- Outlet Port

OS:Connection,
  {047d97bb-94ad-4bd3-832c-32f0aa2ad50a}, !- Handle
  {a6fa19a4-7501-4acb-b1f0-8e52a2bef0c6}, !- Name
  {9eb6fa41-afed-415d-ab93-b367523c48e3}, !- Source Object
  11,                                     !- Outlet Port
  {dbeec184-889e-4b2e-adca-daa612e024b8}, !- Target Object
  2;                                      !- Inlet Port

OS:PortList,
  {0de1d872-203d-49b2-a265-bd406f543cd7}, !- Handle
  {e399e182-6921-4c11-acf0-370c226262c0}, !- Name
  {9eb6fa41-afed-415d-ab93-b367523c48e3}, !- HVAC Component
  {eb866caf-75f3-4ad5-9b20-30dd2ec00bd2}, !- Port 1
  {974e0c4c-bf62-449c-8922-29c43e92db5d}; !- Port 2

OS:PortList,
  {59ed6821-3664-43ea-9c0e-c9a5cb1bcc12}, !- Handle
  {2ff7485a-25a4-4cff-90ca-ce7d2c16c842}, !- Name
  {9eb6fa41-afed-415d-ab93-b367523c48e3}; !- HVAC Component

OS:PortList,
  {030e6674-7e6c-473f-9ef9-770178e61745}, !- Handle
  {ec1833a1-338e-4a22-b3c5-a35b6cfe15fa}, !- Name
  {9eb6fa41-afed-415d-ab93-b367523c48e3}, !- HVAC Component
  {5cf10af2-fc0b-4f9f-b60d-266a801e57a7}, !- Port 1
  {5d20f73b-4b19-493f-8c59-e24ac818bfa0}; !- Port 2

OS:Sizing:Zone,
  {eda1fe5e-da5b-4bcc-a37e-d966861dd04d}, !- Handle
  {9eb6fa41-afed-415d-ab93-b367523c48e3}, !- Zone or ZoneList Name
  SupplyAirTemperature,                   !- Zone Cooling Design Supply Air Temperature Input Method
  14,                                     !- Zone Cooling Design Supply Air Temperature {C}
  11.11,                                  !- Zone Cooling Design Supply Air Temperature Difference {deltaC}
  SupplyAirTemperature,                   !- Zone Heating Design Supply Air Temperature Input Method
  40,                                     !- Zone Heating Design Supply Air Temperature {C}
  11.11,                                  !- Zone Heating Design Supply Air Temperature Difference {deltaC}
  0.0085,                                 !- Zone Cooling Design Supply Air Humidity Ratio {kg-H2O/kg-air}
  0.008,                                  !- Zone Heating Design Supply Air Humidity Ratio {kg-H2O/kg-air}
  ,                                       !- Zone Heating Sizing Factor
  ,                                       !- Zone Cooling Sizing Factor
  DesignDay,                              !- Cooling Design Air Flow Method
  ,                                       !- Cooling Design Air Flow Rate {m3/s}
  ,                                       !- Cooling Minimum Air Flow per Zone Floor Area {m3/s-m2}
  ,                                       !- Cooling Minimum Air Flow {m3/s}
  ,                                       !- Cooling Minimum Air Flow Fraction
  DesignDay,                              !- Heating Design Air Flow Method
  ,                                       !- Heating Design Air Flow Rate {m3/s}
  ,                                       !- Heating Maximum Air Flow per Zone Floor Area {m3/s-m2}
  ,                                       !- Heating Maximum Air Flow {m3/s}
  ,                                       !- Heating Maximum Air Flow Fraction
  ,                                       !- Design Zone Air Distribution Effectiveness in Cooling Mode
  ,                                       !- Design Zone Air Distribution Effectiveness in Heating Mode
  No,                                     !- Account for Dedicated Outdoor Air System
  NeutralSupplyAir,                       !- Dedicated Outdoor Air System Control Strategy
  autosize,                               !- Dedicated Outdoor Air Low Setpoint Temperature for Design {C}
  autosize;                               !- Dedicated Outdoor Air High Setpoint Temperature for Design {C}

OS:ZoneHVAC:EquipmentList,
  {481c164b-3f32-4059-809e-fd1745b5be90}, !- Handle
  Zone HVAC Equipment List 1,             !- Name
  {9eb6fa41-afed-415d-ab93-b367523c48e3}, !- Thermal Zone
  SequentialLoad,                         !- Load Distribution Scheme
  {998e3b98-a6ab-466f-afa1-77d41ce02149}, !- Zone Equipment 1
  1,                                      !- Zone Equipment Cooling Sequence 1
  1,                                      !- Zone Equipment Heating or No-Load Sequence 1
  ,                                       !- Zone Equipment Sequential Cooling Fraction Schedule Name 1
  ,                                       !- Zone Equipment Sequential Heating Fraction Schedule Name 1
  {76b3ea49-9ecb-4088-9006-2997b5c26ec1}, !- Zone Equipment 2
  2,                                      !- Zone Equipment Cooling Sequence 2
  2,                                      !- Zone Equipment Heating or No-Load Sequence 2
  ,                                       !- Zone Equipment Sequential Cooling Fraction Schedule Name 2
  ;                                       !- Zone Equipment Sequential Heating Fraction Schedule Name 2

OS:Space,
  {ff97d984-af79-4081-96e6-6853f0d0d658}, !- Handle
  living space,                           !- Name
  {da92c2cb-a9dc-47d7-9f4d-9f554c4f7ab3}, !- Space Type Name
  ,                                       !- Default Construction Set Name
  ,                                       !- Default Schedule Set Name
  -0,                                     !- Direction of Relative North {deg}
  0,                                      !- X Origin {m}
  0,                                      !- Y Origin {m}
  0,                                      !- Z Origin {m}
  ,                                       !- Building Story Name
  {9eb6fa41-afed-415d-ab93-b367523c48e3}, !- Thermal Zone Name
  ,                                       !- Part of Total Floor Area
  ,                                       !- Design Specification Outdoor Air Object Name
  {c4015fba-7fa6-4d25-9377-2db595978c3a}; !- Building Unit Name

OS:Surface,
  {9f08eb88-1980-4714-92b5-f50400de1103}, !- Handle
  Surface 1,                              !- Name
  Floor,                                  !- Surface Type
  {587c04ec-dd9f-4abd-9dcc-12fed3294fff}, !- Construction Name
  {ff97d984-af79-4081-96e6-6853f0d0d658}, !- Space Name
  Surface,                                !- Outside Boundary Condition
  {514d16cf-c64c-4ff1-883a-c4d99d47add9}, !- Outside Boundary Condition Object
  NoSun,                                  !- Sun Exposure
  NoWind,                                 !- Wind Exposure
  ,                                       !- View Factor to Ground
  ,                                       !- Number of Vertices
  0, 0, 0,                                !- X,Y,Z Vertex 1 {m}
  0, 7.1732649261475, 0,                  !- X,Y,Z Vertex 2 {m}
  11.5396000973376, 7.1732649261475, 0,   !- X,Y,Z Vertex 3 {m}
  11.5396000973376, 0, 0;                 !- X,Y,Z Vertex 4 {m}

OS:Surface,
  {791436fc-15c0-46e6-9e3b-2890d3fa6149}, !- Handle
  Surface 2,                              !- Name
  Wall,                                   !- Surface Type
  {cbd4b66f-f8ab-498b-b263-4c61492a51fd}, !- Construction Name
  {ff97d984-af79-4081-96e6-6853f0d0d658}, !- Space Name
  Outdoors,                               !- Outside Boundary Condition
  ,                                       !- Outside Boundary Condition Object
  SunExposed,                             !- Sun Exposure
  WindExposed,                            !- Wind Exposure
  ,                                       !- View Factor to Ground
  ,                                       !- Number of Vertices
  0, 7.1732649261475, 2.4384,             !- X,Y,Z Vertex 1 {m}
  0, 7.1732649261475, 0,                  !- X,Y,Z Vertex 2 {m}
  0, 0, 0,                                !- X,Y,Z Vertex 3 {m}
  0, 0, 2.4384;                           !- X,Y,Z Vertex 4 {m}

OS:Surface,
  {5b6c3020-484c-4cb9-9a7e-c7e4858b4999}, !- Handle
  Surface 3,                              !- Name
  Wall,                                   !- Surface Type
  {cbd4b66f-f8ab-498b-b263-4c61492a51fd}, !- Construction Name
  {ff97d984-af79-4081-96e6-6853f0d0d658}, !- Space Name
  Outdoors,                               !- Outside Boundary Condition
  ,                                       !- Outside Boundary Condition Object
  SunExposed,                             !- Sun Exposure
  WindExposed,                            !- Wind Exposure
  ,                                       !- View Factor to Ground
  ,                                       !- Number of Vertices
  11.5396000973376, 7.1732649261475, 2.4384, !- X,Y,Z Vertex 1 {m}
  11.5396000973376, 7.1732649261475, 0,   !- X,Y,Z Vertex 2 {m}
  0, 7.1732649261475, 0,                  !- X,Y,Z Vertex 3 {m}
  0, 7.1732649261475, 2.4384;             !- X,Y,Z Vertex 4 {m}

OS:Surface,
  {b84c413d-591b-4db4-8326-c29a46f7f2c1}, !- Handle
  Surface 4,                              !- Name
  Wall,                                   !- Surface Type
  {cbd4b66f-f8ab-498b-b263-4c61492a51fd}, !- Construction Name
  {ff97d984-af79-4081-96e6-6853f0d0d658}, !- Space Name
  Outdoors,                               !- Outside Boundary Condition
  ,                                       !- Outside Boundary Condition Object
  SunExposed,                             !- Sun Exposure
  WindExposed,                            !- Wind Exposure
  ,                                       !- View Factor to Ground
  ,                                       !- Number of Vertices
  11.5396000973376, 0, 2.4384,            !- X,Y,Z Vertex 1 {m}
  11.5396000973376, 0, 0,                 !- X,Y,Z Vertex 2 {m}
  11.5396000973376, 7.1732649261475, 0,   !- X,Y,Z Vertex 3 {m}
  11.5396000973376, 7.1732649261475, 2.4384; !- X,Y,Z Vertex 4 {m}

OS:Surface,
  {592fc91e-8b94-4823-90f1-8af042dea7c1}, !- Handle
  Surface 5,                              !- Name
  Wall,                                   !- Surface Type
  {cbd4b66f-f8ab-498b-b263-4c61492a51fd}, !- Construction Name
  {ff97d984-af79-4081-96e6-6853f0d0d658}, !- Space Name
  Outdoors,                               !- Outside Boundary Condition
  ,                                       !- Outside Boundary Condition Object
  SunExposed,                             !- Sun Exposure
  WindExposed,                            !- Wind Exposure
  ,                                       !- View Factor to Ground
  ,                                       !- Number of Vertices
  11.5396000973376, 0, 0,                 !- X,Y,Z Vertex 1 {m}
  11.5396000973376, 0, 2.4384,            !- X,Y,Z Vertex 2 {m}
  1.04865714285714, 0, 2.4384,            !- X,Y,Z Vertex 3 {m}
  1.04865714285714, 0, 0;                 !- X,Y,Z Vertex 4 {m}

OS:Surface,
  {4022b6fc-b5d3-492d-a744-b58b279d5788}, !- Handle
  Surface 6,                              !- Name
  RoofCeiling,                            !- Surface Type
  {0777c65e-21c8-4b23-9dcc-739dab12fcb4}, !- Construction Name
  {ff97d984-af79-4081-96e6-6853f0d0d658}, !- Space Name
  Surface,                                !- Outside Boundary Condition
  {5ef97904-a238-4f29-b413-3af49e141e94}, !- Outside Boundary Condition Object
  NoSun,                                  !- Sun Exposure
  NoWind,                                 !- Wind Exposure
  ,                                       !- View Factor to Ground
  ,                                       !- Number of Vertices
  11.5396000973376, 0, 2.4384,            !- X,Y,Z Vertex 1 {m}
  11.5396000973376, 7.1732649261475, 2.4384, !- X,Y,Z Vertex 2 {m}
  0, 7.1732649261475, 2.4384,             !- X,Y,Z Vertex 3 {m}
  0, 0, 2.4384;                           !- X,Y,Z Vertex 4 {m}

OS:SpaceType,
  {da92c2cb-a9dc-47d7-9f4d-9f554c4f7ab3}, !- Handle
  Space Type 1,                           !- Name
  ,                                       !- Default Construction Set Name
  ,                                       !- Default Schedule Set Name
  ,                                       !- Group Rendering Name
  ,                                       !- Design Specification Outdoor Air Object Name
  ,                                       !- Standards Template
  ,                                       !- Standards Building Type
  living;                                 !- Standards Space Type

OS:Space,
  {3ab0dcba-4c0b-43ba-8352-707ad7e4f6dd}, !- Handle
  living space|story 2,                   !- Name
  {da92c2cb-a9dc-47d7-9f4d-9f554c4f7ab3}, !- Space Type Name
  ,                                       !- Default Construction Set Name
  ,                                       !- Default Schedule Set Name
  -0,                                     !- Direction of Relative North {deg}
  0,                                      !- X Origin {m}
  0,                                      !- Y Origin {m}
  2.4384,                                 !- Z Origin {m}
  ,                                       !- Building Story Name
  {9eb6fa41-afed-415d-ab93-b367523c48e3}, !- Thermal Zone Name
  ,                                       !- Part of Total Floor Area
  ,                                       !- Design Specification Outdoor Air Object Name
  {c4015fba-7fa6-4d25-9377-2db595978c3a}; !- Building Unit Name

OS:Surface,
  {5ef97904-a238-4f29-b413-3af49e141e94}, !- Handle
  Surface 7,                              !- Name