!- NOTE: Auto-generated from /test/osw_files/SFD_HVACSizing_Load_2story_S_GRG_FA.osw

OS:Version,
  {c775af5c-2ce2-4598-943d-d083fff3600a}, !- Handle
  2.9.0;                                  !- Version Identifier

OS:SimulationControl,
  {7f4438c0-7547-45f0-b3b6-89925ff029e2}, !- Handle
  ,                                       !- Do Zone Sizing Calculation
  ,                                       !- Do System Sizing Calculation
  ,                                       !- Do Plant Sizing Calculation
  No;                                     !- Run Simulation for Sizing Periods

OS:Timestep,
  {328f346c-41cc-4285-afb5-b2e0d4329b6e}, !- Handle
  6;                                      !- Number of Timesteps per Hour

OS:ShadowCalculation,
  {e4ea89f2-14e3-47fb-bd64-7dcc8a8861f2}, !- Handle
  20,                                     !- Calculation Frequency
  200;                                    !- Maximum Figures in Shadow Overlap Calculations

OS:SurfaceConvectionAlgorithm:Outside,
  {65845960-9671-40da-8467-53f21aca8fe6}, !- Handle
  DOE-2;                                  !- Algorithm

OS:SurfaceConvectionAlgorithm:Inside,
  {c78f3929-1b11-4815-9036-9bbe9f3d2816}, !- Handle
  TARP;                                   !- Algorithm

OS:ZoneCapacitanceMultiplier:ResearchSpecial,
  {83a5c420-8f5b-44c7-91ad-394af181cd94}, !- Handle
  ,                                       !- Temperature Capacity Multiplier
  15,                                     !- Humidity Capacity Multiplier
  ;                                       !- Carbon Dioxide Capacity Multiplier

OS:RunPeriod,
  {123dc1ea-4d7b-4466-b450-b4964eef78f8}, !- Handle
  Run Period 1,                           !- Name
  1,                                      !- Begin Month
  1,                                      !- Begin Day of Month
  12,                                     !- End Month
  31,                                     !- End Day of Month
  ,                                       !- Use Weather File Holidays and Special Days
  ,                                       !- Use Weather File Daylight Saving Period
  ,                                       !- Apply Weekend Holiday Rule
  ,                                       !- Use Weather File Rain Indicators
  ,                                       !- Use Weather File Snow Indicators
  ;                                       !- Number of Times Runperiod to be Repeated

OS:YearDescription,
  {c1e1a0b0-9b3f-46bb-84d4-ce164b2a267c}, !- Handle
  2007,                                   !- Calendar Year
  ,                                       !- Day of Week for Start Day
  ;                                       !- Is Leap Year

OS:WeatherFile,
  {0dda3284-ba34-437f-bb8b-272802f49712}, !- Handle
  Denver Intl Ap,                         !- City
  CO,                                     !- State Province Region
  USA,                                    !- Country
  TMY3,                                   !- Data Source
  725650,                                 !- WMO Number
  39.83,                                  !- Latitude {deg}
  -104.65,                                !- Longitude {deg}
  -7,                                     !- Time Zone {hr}
  1650,                                   !- Elevation {m}
  file:../weather/USA_CO_Denver.Intl.AP.725650_TMY3.epw, !- Url
  E23378AA;                               !- Checksum

OS:AdditionalProperties,
  {d8f6f32a-e51a-44b3-8efb-ff1269cf1777}, !- Handle
  {0dda3284-ba34-437f-bb8b-272802f49712}, !- Object Name
  EPWHeaderCity,                          !- Feature Name 1
  String,                                 !- Feature Data Type 1
  Denver Intl Ap,                         !- Feature Value 1
  EPWHeaderState,                         !- Feature Name 2
  String,                                 !- Feature Data Type 2
  CO,                                     !- Feature Value 2
  EPWHeaderCountry,                       !- Feature Name 3
  String,                                 !- Feature Data Type 3
  USA,                                    !- Feature Value 3
  EPWHeaderDataSource,                    !- Feature Name 4
  String,                                 !- Feature Data Type 4
  TMY3,                                   !- Feature Value 4
  EPWHeaderStation,                       !- Feature Name 5
  String,                                 !- Feature Data Type 5
  725650,                                 !- Feature Value 5
  EPWHeaderLatitude,                      !- Feature Name 6
  Double,                                 !- Feature Data Type 6
  39.829999999999998,                     !- Feature Value 6
  EPWHeaderLongitude,                     !- Feature Name 7
  Double,                                 !- Feature Data Type 7
  -104.65000000000001,                    !- Feature Value 7
  EPWHeaderTimezone,                      !- Feature Name 8
  Double,                                 !- Feature Data Type 8
  -7,                                     !- Feature Value 8
  EPWHeaderAltitude,                      !- Feature Name 9
  Double,                                 !- Feature Data Type 9
  5413.3858267716532,                     !- Feature Value 9
  EPWHeaderLocalPressure,                 !- Feature Name 10
  Double,                                 !- Feature Data Type 10
  0.81937567683596546,                    !- Feature Value 10
  EPWHeaderRecordsPerHour,                !- Feature Name 11
  Double,                                 !- Feature Data Type 11
  0,                                      !- Feature Value 11
  EPWDataAnnualAvgDrybulb,                !- Feature Name 12
  Double,                                 !- Feature Data Type 12
  51.575616438356228,                     !- Feature Value 12
  EPWDataAnnualMinDrybulb,                !- Feature Name 13
  Double,                                 !- Feature Data Type 13
  -2.9200000000000017,                    !- Feature Value 13
  EPWDataAnnualMaxDrybulb,                !- Feature Name 14
  Double,                                 !- Feature Data Type 14
  104,                                    !- Feature Value 14
  EPWDataCDD50F,                          !- Feature Name 15
  Double,                                 !- Feature Data Type 15
  3072.2925000000005,                     !- Feature Value 15
  EPWDataCDD65F,                          !- Feature Name 16
  Double,                                 !- Feature Data Type 16
  883.62000000000035,                     !- Feature Value 16
  EPWDataHDD50F,                          !- Feature Name 17
  Double,                                 !- Feature Data Type 17
  2497.1925000000001,                     !- Feature Value 17
  EPWDataHDD65F,                          !- Feature Name 18
  Double,                                 !- Feature Data Type 18
  5783.5200000000013,                     !- Feature Value 18
  EPWDataAnnualAvgWindspeed,              !- Feature Name 19
  Double,                                 !- Feature Data Type 19
  3.9165296803649667,                     !- Feature Value 19
  EPWDataMonthlyAvgDrybulbs,              !- Feature Name 20
  String,                                 !- Feature Data Type 20
  33.4191935483871&#4431.90142857142857&#4443.02620967741937&#4442.48624999999999&#4459.877741935483854&#4473.57574999999997&#4472.07975806451608&#4472.70008064516134&#4466.49200000000006&#4450.079112903225806&#4437.218250000000005&#4434.582177419354835, !- Feature Value 20
  EPWDataGroundMonthlyTemps,              !- Feature Name 21
  String,                                 !- Feature Data Type 21
  44.08306285945173&#4440.89570904991865&#4440.64045432632048&#4442.153016571250646&#4448.225111118704206&#4454.268919273837525&#4459.508577937551024&#4462.82777283423508&#4463.10975667174995&#4460.41014950381947&#4455.304105212311526&#4449.445696474514364, !- Feature Value 21
  EPWDataWSF,                             !- Feature Name 22
  Double,                                 !- Feature Data Type 22
  0.58999999999999997,                    !- Feature Value 22
  EPWDataMonthlyAvgDailyHighDrybulbs,     !- Feature Name 23
  String,                                 !- Feature Data Type 23
  47.41032258064516&#4446.58642857142857&#4455.15032258064517&#4453.708&#4472.80193548387098&#4488.67600000000002&#4486.1858064516129&#4485.87225806451613&#4482.082&#4463.18064516129033&#4448.73400000000001&#4448.87935483870968, !- Feature Value 23
  EPWDataMonthlyAvgDailyLowDrybulbs,      !- Feature Name 24
  String,                                 !- Feature Data Type 24
  19.347741935483874&#4419.856428571428573&#4430.316129032258065&#4431.112&#4447.41612903225806&#4457.901999999999994&#4459.063870967741934&#4460.956774193548384&#4452.352000000000004&#4438.41612903225806&#4427.002000000000002&#4423.02903225806451, !- Feature Value 24
  EPWDesignHeatingDrybulb,                !- Feature Name 25
  Double,                                 !- Feature Data Type 25
  12.02,                                  !- Feature Value 25
  EPWDesignHeatingWindspeed,              !- Feature Name 26
  Double,                                 !- Feature Data Type 26
  2.8062500000000004,                     !- Feature Value 26
  EPWDesignCoolingDrybulb,                !- Feature Name 27
  Double,                                 !- Feature Data Type 27
  91.939999999999998,                     !- Feature Value 27
  EPWDesignCoolingWetbulb,                !- Feature Name 28
  Double,                                 !- Feature Data Type 28
  59.95131430195849,                      !- Feature Value 28
  EPWDesignCoolingHumidityRatio,          !- Feature Name 29
  Double,                                 !- Feature Data Type 29
  0.0059161086834698092,                  !- Feature Value 29
  EPWDesignCoolingWindspeed,              !- Feature Name 30
  Double,                                 !- Feature Data Type 30
  3.7999999999999989,                     !- Feature Value 30
  EPWDesignDailyTemperatureRange,         !- Feature Name 31
  Double,                                 !- Feature Data Type 31
  24.915483870967748,                     !- Feature Value 31
  EPWDesignDehumidDrybulb,                !- Feature Name 32
  Double,                                 !- Feature Data Type 32
  67.996785714285721,                     !- Feature Value 32
  EPWDesignDehumidHumidityRatio,          !- Feature Name 33
  Double,                                 !- Feature Data Type 33
  0.012133744170488724,                   !- Feature Value 33
  EPWDesignCoolingDirectNormal,           !- Feature Name 34
  Double,                                 !- Feature Data Type 34
  985,                                    !- Feature Value 34
  EPWDesignCoolingDiffuseHorizontal,      !- Feature Name 35
  Double,                                 !- Feature Data Type 35
  84;                                     !- Feature Value 35

OS:Site,
  {857309d9-87a0-4f75-91d1-2e498eb3f8c5}, !- Handle
  Denver Intl Ap_CO_USA,                  !- Name
  39.83,                                  !- Latitude {deg}
  -104.65,                                !- Longitude {deg}
  -7,                                     !- Time Zone {hr}
  1650,                                   !- Elevation {m}
  Suburbs;                                !- Terrain

OS:ClimateZones,
  {73ee891e-2389-4732-bb96-0384983a98f3}, !- Handle
  ,                                       !- Active Institution
  ,                                       !- Active Year
  ,                                       !- Climate Zone Institution Name 1
  ,                                       !- Climate Zone Document Name 1
  ,                                       !- Climate Zone Document Year 1
  ,                                       !- Climate Zone Value 1
  Building America,                       !- Climate Zone Institution Name 2
  ,                                       !- Climate Zone Document Name 2
  0,                                      !- Climate Zone Document Year 2
  Cold;                                   !- Climate Zone Value 2

OS:Site:WaterMainsTemperature,
  {a3447c17-297d-4c9a-8b18-0ce21f38e6f6}, !- Handle
  Correlation,                            !- Calculation Method
  ,                                       !- Temperature Schedule Name
  10.8753424657535,                       !- Annual Average Outdoor Air Temperature {C}
  23.1524007936508;                       !- Maximum Difference In Monthly Average Outdoor Air Temperatures {deltaC}

OS:RunPeriodControl:DaylightSavingTime,
  {253bbc4e-04ed-4e82-b483-2c6c1dca4a35}, !- Handle
  4/7,                                    !- Start Date
  10/26;                                  !- End Date

OS:Site:GroundTemperature:Deep,
  {bf5ff936-3b93-4e79-bcc3-902dd92a9531}, !- Handle
  10.8753424657535,                       !- January Deep Ground Temperature {C}
  10.8753424657535,                       !- February Deep Ground Temperature {C}
  10.8753424657535,                       !- March Deep Ground Temperature {C}
  10.8753424657535,                       !- April Deep Ground Temperature {C}
  10.8753424657535,                       !- May Deep Ground Temperature {C}
  10.8753424657535,                       !- June Deep Ground Temperature {C}
  10.8753424657535,                       !- July Deep Ground Temperature {C}
  10.8753424657535,                       !- August Deep Ground Temperature {C}
  10.8753424657535,                       !- September Deep Ground Temperature {C}
  10.8753424657535,                       !- October Deep Ground Temperature {C}
  10.8753424657535,                       !- November Deep Ground Temperature {C}
  10.8753424657535;                       !- December Deep Ground Temperature {C}

OS:ThermalZone,
  {30e65f8a-f236-4d72-b85f-b01d2c942dbf}, !- Handle
  living zone,                            !- Name
  ,                                       !- Multiplier
  ,                                       !- Ceiling Height {m}
  ,                                       !- Volume {m3}
  ,                                       !- Floor Area {m2}
  ,                                       !- Zone Inside Convection Algorithm
  ,                                       !- Zone Outside Convection Algorithm
  ,                                       !- Zone Conditioning Equipment List Name
  {fbbee9c6-bd8c-4d77-aa9b-10a438b0931d}, !- Zone Air Inlet Port List
  {26bc6864-607f-4bd4-a1cb-373d7a1e3d5a}, !- Zone Air Exhaust Port List
  {217bf566-f3ef-46a2-af5a-bf69d23ac0f1}, !- Zone Air Node Name
  {4c972dc2-7b53-4c7e-ac6f-eb83b849c7da}, !- Zone Return Air Port List
  ,                                       !- Primary Daylighting Control Name
  ,                                       !- Fraction of Zone Controlled by Primary Daylighting Control
  ,                                       !- Secondary Daylighting Control Name
  ,                                       !- Fraction of Zone Controlled by Secondary Daylighting Control
  ,                                       !- Illuminance Map Name
  ,                                       !- Group Rendering Name
  ,                                       !- Thermostat Name
  No;                                     !- Use Ideal Air Loads

OS:Node,
  {38c17eea-cb2a-47ff-b01a-8bf82d6e760f}, !- Handle
  Node 1,                                 !- Name
  {217bf566-f3ef-46a2-af5a-bf69d23ac0f1}, !- Inlet Port
  ;                                       !- Outlet Port

OS:Connection,
  {217bf566-f3ef-46a2-af5a-bf69d23ac0f1}, !- Handle
  {72f28710-126a-42e2-9eba-e39b0173eb11}, !- Name
  {30e65f8a-f236-4d72-b85f-b01d2c942dbf}, !- Source Object
  11,                                     !- Outlet Port
  {38c17eea-cb2a-47ff-b01a-8bf82d6e760f}, !- Target Object
  2;                                      !- Inlet Port

OS:PortList,
  {fbbee9c6-bd8c-4d77-aa9b-10a438b0931d}, !- Handle
  {75ced634-8c05-4b0e-9d24-14990a49ceb6}, !- Name
  {30e65f8a-f236-4d72-b85f-b01d2c942dbf}; !- HVAC Component

OS:PortList,
  {26bc6864-607f-4bd4-a1cb-373d7a1e3d5a}, !- Handle
  {bef08611-68c1-4b26-8007-00b483dab9ee}, !- Name
  {30e65f8a-f236-4d72-b85f-b01d2c942dbf}; !- HVAC Component

OS:PortList,
  {4c972dc2-7b53-4c7e-ac6f-eb83b849c7da}, !- Handle
  {6754c547-11f9-402b-9b5c-084e44d00d73}, !- Name
  {30e65f8a-f236-4d72-b85f-b01d2c942dbf}; !- HVAC Component

OS:Sizing:Zone,
  {b23a2687-7095-47d2-9102-97a0f55b76cd}, !- Handle
  {30e65f8a-f236-4d72-b85f-b01d2c942dbf}, !- Zone or ZoneList Name
  SupplyAirTemperature,                   !- Zone Cooling Design Supply Air Temperature Input Method
  14,                                     !- Zone Cooling Design Supply Air Temperature {C}
  11.11,                                  !- Zone Cooling Design Supply Air Temperature Difference {deltaC}
  SupplyAirTemperature,                   !- Zone Heating Design Supply Air Temperature Input Method
  40,                                     !- Zone Heating Design Supply Air Temperature {C}
  11.11,                                  !- Zone Heating Design Supply Air Temperature Difference {deltaC}
  0.0085,                                 !- Zone Cooling Design Supply Air Humidity Ratio {kg-H2O/kg-air}
  0.008,                                  !- Zone Heating Design Supply Air Humidity Ratio {kg-H2O/kg-air}
  ,                                       !- Zone Heating Sizing Factor
  ,                                       !- Zone Cooling Sizing Factor
  DesignDay,                              !- Cooling Design Air Flow Method
  ,                                       !- Cooling Design Air Flow Rate {m3/s}
  ,                                       !- Cooling Minimum Air Flow per Zone Floor Area {m3/s-m2}
  ,                                       !- Cooling Minimum Air Flow {m3/s}
  ,                                       !- Cooling Minimum Air Flow Fraction
  DesignDay,                              !- Heating Design Air Flow Method
  ,                                       !- Heating Design Air Flow Rate {m3/s}
  ,                                       !- Heating Maximum Air Flow per Zone Floor Area {m3/s-m2}
  ,                                       !- Heating Maximum Air Flow {m3/s}
  ,                                       !- Heating Maximum Air Flow Fraction
  ,                                       !- Design Zone Air Distribution Effectiveness in Cooling Mode
  ,                                       !- Design Zone Air Distribution Effectiveness in Heating Mode
  No,                                     !- Account for Dedicated Outdoor Air System
  NeutralSupplyAir,                       !- Dedicated Outdoor Air System Control Strategy
  autosize,                               !- Dedicated Outdoor Air Low Setpoint Temperature for Design {C}
  autosize;                               !- Dedicated Outdoor Air High Setpoint Temperature for Design {C}

OS:ZoneHVAC:EquipmentList,
  {a1685f37-9dcf-4d50-a548-bbc7eecbe840}, !- Handle
  Zone HVAC Equipment List 1,             !- Name
  {30e65f8a-f236-4d72-b85f-b01d2c942dbf}; !- Thermal Zone

OS:ThermalZone,
  {165bb90e-10bc-4e56-952c-4db6476ef23a}, !- Handle
  garage zone,                            !- Name
  ,                                       !- Multiplier
  ,                                       !- Ceiling Height {m}
  ,                                       !- Volume {m3}
  ,                                       !- Floor Area {m2}
  ,                                       !- Zone Inside Convection Algorithm
  ,                                       !- Zone Outside Convection Algorithm
  ,                                       !- Zone Conditioning Equipment List Name
  {04a6b4f3-9cf3-43e2-84a9-e7949925e3f0}, !- Zone Air Inlet Port List
  {83e57ea8-a0e4-487f-940b-7ae2b5f5a5b0}, !- Zone Air Exhaust Port List
  {535475a3-57ab-44dd-97ab-85727f0d9923}, !- Zone Air Node Name
  {878b396a-2459-4b76-8539-7b606973b8ff}, !- Zone Return Air Port List
  ,                                       !- Primary Daylighting Control Name
  ,                                       !- Fraction of Zone Controlled by Primary Daylighting Control
  ,                                       !- Secondary Daylighting Control Name
  ,                                       !- Fraction of Zone Controlled by Secondary Daylighting Control
  ,                                       !- Illuminance Map Name
  ,                                       !- Group Rendering Name
  ,                                       !- Thermostat Name
  No;                                     !- Use Ideal Air Loads

OS:Node,
  {a349d2a7-26c2-4da5-bcd4-a53459ec4e2b}, !- Handle
  Node 2,                                 !- Name
  {535475a3-57ab-44dd-97ab-85727f0d9923}, !- Inlet Port
  ;                                       !- Outlet Port

OS:Connection,
  {535475a3-57ab-44dd-97ab-85727f0d9923}, !- Handle
  {92676d4c-fcbf-487d-a4f9-cb093c494915}, !- Name
  {165bb90e-10bc-4e56-952c-4db6476ef23a}, !- Source Object
  11,                                     !- Outlet Port
  {a349d2a7-26c2-4da5-bcd4-a53459ec4e2b}, !- Target Object
  2;                                      !- Inlet Port

OS:PortList,
  {04a6b4f3-9cf3-43e2-84a9-e7949925e3f0}, !- Handle
  {5448115a-7217-4f1b-b367-616b2c44d101}, !- Name
  {165bb90e-10bc-4e56-952c-4db6476ef23a}; !- HVAC Component

OS:PortList,
  {83e57ea8-a0e4-487f-940b-7ae2b5f5a5b0}, !- Handle
  {043b8d8b-21cb-4ea1-9a96-e9436505b834}, !- Name
  {165bb90e-10bc-4e56-952c-4db6476ef23a}; !- HVAC Component

OS:PortList,
  {878b396a-2459-4b76-8539-7b606973b8ff}, !- Handle
  {23ee2e68-f68b-49d9-ab83-d0cd7751e67d}, !- Name
  {165bb90e-10bc-4e56-952c-4db6476ef23a}; !- HVAC Component

OS:Sizing:Zone,
  {26934aea-410a-47a2-8a67-d7aa2712f3e2}, !- Handle
  {165bb90e-10bc-4e56-952c-4db6476ef23a}, !- Zone or ZoneList Name
  SupplyAirTemperature,                   !- Zone Cooling Design Supply Air Temperature Input Method
  14,                                     !- Zone Cooling Design Supply Air Temperature {C}
  11.11,                                  !- Zone Cooling Design Supply Air Temperature Difference {deltaC}
  SupplyAirTemperature,                   !- Zone Heating Design Supply Air Temperature Input Method
  40,                                     !- Zone Heating Design Supply Air Temperature {C}
  11.11,                                  !- Zone Heating Design Supply Air Temperature Difference {deltaC}
  0.0085,                                 !- Zone Cooling Design Supply Air Humidity Ratio {kg-H2O/kg-air}
  0.008,                                  !- Zone Heating Design Supply Air Humidity Ratio {kg-H2O/kg-air}
  ,                                       !- Zone Heating Sizing Factor
  ,                                       !- Zone Cooling Sizing Factor
  DesignDay,                              !- Cooling Design Air Flow Method
  ,                                       !- Cooling Design Air Flow Rate {m3/s}
  ,                                       !- Cooling Minimum Air Flow per Zone Floor Area {m3/s-m2}
  ,                                       !- Cooling Minimum Air Flow {m3/s}
  ,                                       !- Cooling Minimum Air Flow Fraction
  DesignDay,                              !- Heating Design Air Flow Method
  ,                                       !- Heating Design Air Flow Rate {m3/s}
  ,                                       !- Heating Maximum Air Flow per Zone Floor Area {m3/s-m2}
  ,                                       !- Heating Maximum Air Flow {m3/s}
  ,                                       !- Heating Maximum Air Flow Fraction
  ,                                       !- Design Zone Air Distribution Effectiveness in Cooling Mode
  ,                                       !- Design Zone Air Distribution Effectiveness in Heating Mode
  No,                                     !- Account for Dedicated Outdoor Air System
  NeutralSupplyAir,                       !- Dedicated Outdoor Air System Control Strategy
  autosize,                               !- Dedicated Outdoor Air Low Setpoint Temperature for Design {C}
  autosize;                               !- Dedicated Outdoor Air High Setpoint Temperature for Design {C}

OS:ZoneHVAC:EquipmentList,
  {bae2cc97-e98f-4188-a3ca-496a63c4bcc7}, !- Handle
  Zone HVAC Equipment List 2,             !- Name
  {165bb90e-10bc-4e56-952c-4db6476ef23a}; !- Thermal Zone

OS:Space,
  {7f88b583-7941-4638-b59e-8a5c4ad43042}, !- Handle
  garage space,                           !- Name
  {5e19eedd-60ab-4a6e-ae09-2dc635370a2f}, !- Space Type Name
  ,                                       !- Default Construction Set Name
  ,                                       !- Default Schedule Set Name
  -0,                                     !- Direction of Relative North {deg}
  0,                                      !- X Origin {m}
  0,                                      !- Y Origin {m}
  0,                                      !- Z Origin {m}
  ,                                       !- Building Story Name
  {165bb90e-10bc-4e56-952c-4db6476ef23a}; !- Thermal Zone Name

OS:Surface,
  {f12b7ed2-6d96-4502-b6a8-8359f188e4e1}, !- Handle
  Surface 1,                              !- Name
  Floor,                                  !- Surface Type
  {d5170ceb-791c-4247-9626-9b794ad58d2e}, !- Construction Name
  {7f88b583-7941-4638-b59e-8a5c4ad43042}, !- Space Name
  Foundation,                             !- Outside Boundary Condition
  {6c611b09-375a-4464-9e7c-409ad3227c9d}, !- Outside Boundary Condition Object
  NoSun,                                  !- Sun Exposure
  NoWind,                                 !- Wind Exposure
  ,                                       !- View Factor to Ground
  ,                                       !- Number of Vertices
  7.6199999993904, -3.048, 0,             !- X,Y,Z Vertex 1 {m}
  7.6199999993904, 3.048, 0,              !- X,Y,Z Vertex 2 {m}
  11.2775999993904, 3.048, 0,             !- X,Y,Z Vertex 3 {m}
  11.2775999993904, -3.048, 0;            !- X,Y,Z Vertex 4 {m}

OS:Surface,
  {18964665-0152-4a87-8b26-01e36682c7b9}, !- Handle
  Surface 2,                              !- Name
  Wall,                                   !- Surface Type
  {3faeeff3-df7c-4664-a73a-ed9d370ac3b6}, !- Construction Name
  {7f88b583-7941-4638-b59e-8a5c4ad43042}, !- Space Name
  Surface,                                !- Outside Boundary Condition
  {21652674-7624-4d77-9966-c26123688c2c}, !- Outside Boundary Condition Object
  NoSun,                                  !- Sun Exposure
  NoWind,                                 !- Wind Exposure
  ,                                       !- View Factor to Ground
  ,                                       !- Number of Vertices
  7.6199999993904, 3.048, 2.4384,         !- X,Y,Z Vertex 1 {m}
  7.6199999993904, 3.048, 0,              !- X,Y,Z Vertex 2 {m}
  7.6199999993904, 0, 0,                  !- X,Y,Z Vertex 3 {m}
  7.6199999993904, 0, 2.4384;             !- X,Y,Z Vertex 4 {m}

OS:Surface,
  {85d54b71-6361-450a-8475-f75cd38416ab}, !- Handle
  Surface 3,                              !- Name
  Wall,                                   !- Surface Type
  {3faeeff3-df7c-4664-a73a-ed9d370ac3b6}, !- Construction Name
  {7f88b583-7941-4638-b59e-8a5c4ad43042}, !- Space Name
  Surface,                                !- Outside Boundary Condition
  {3c733747-2415-42d6-a5e4-7bd6c28fc3d4}, !- Outside Boundary Condition Object
  NoSun,                                  !- Sun Exposure
  NoWind,                                 !- Wind Exposure
  ,                                       !- View Factor to Ground
  ,                                       !- Number of Vertices
  11.2775999993904, 3.048, 2.4384,        !- X,Y,Z Vertex 1 {m}
  11.2775999993904, 3.048, 0,             !- X,Y,Z Vertex 2 {m}
  7.6199999993904, 3.048, 0,              !- X,Y,Z Vertex 3 {m}
  7.6199999993904, 3.048, 2.4384;         !- X,Y,Z Vertex 4 {m}

OS:Surface,
  {b0f33ae4-c380-49a8-950f-c56e36764808}, !- Handle
  Surface 4,                              !- Name
  Wall,                                   !- Surface Type
  {99c49eb0-7c86-409f-8d43-736e00fe809b}, !- Construction Name
  {7f88b583-7941-4638-b59e-8a5c4ad43042}, !- Space Name
  Outdoors,                               !- Outside Boundary Condition
  ,                                       !- Outside Boundary Condition Object
  SunExposed,                             !- Sun Exposure
  WindExposed,                            !- Wind Exposure
  ,                                       !- View Factor to Ground
  ,                                       !- Number of Vertices
  11.2775999993904, -3.048, 2.4384,       !- X,Y,Z Vertex 1 {m}
  11.2775999993904, -3.048, 0,            !- X,Y,Z Vertex 2 {m}
  11.2775999993904, 3.048, 0,             !- X,Y,Z Vertex 3 {m}
  11.2775999993904, 3.048, 2.4384;        !- X,Y,Z Vertex 4 {m}

OS:Surface,
  {fd13dbc6-7da8-4062-a125-98177545be65}, !- Handle
  Surface 5,                              !- Name
  Wall,                                   !- Surface Type
  {99c49eb0-7c86-409f-8d43-736e00fe809b}, !- Construction Name
  {7f88b583-7941-4638-b59e-8a5c4ad43042}, !- Space Name
  Outdoors,                               !- Outside Boundary Condition
  ,                                       !- Outside Boundary Condition Object
  SunExposed,                             !- Sun Exposure
  WindExposed,                            !- Wind Exposure
  ,                                       !- View Factor to Ground
  ,                                       !- Number of Vertices
  7.6199999993904, -3.048, 2.4384,        !- X,Y,Z Vertex 1 {m}
  7.6199999993904, -3.048, 0,             !- X,Y,Z Vertex 2 {m}
  11.2775999993904, -3.048, 0,            !- X,Y,Z Vertex 3 {m}
  11.2775999993904, -3.048, 2.4384;       !- X,Y,Z Vertex 4 {m}

OS:Surface,
  {230d0b9b-5041-4e71-8ab9-c32cee7c9cd2}, !- Handle
  Surface 6,                              !- Name