!- NOTE: Auto-generated from /test/osw_files/SFD_HVACSizing_Equip_GF_ACV_Fixed.osw

OS:Version,
  {16ae23b4-8ab3-4ad9-b6f7-5b5fb5bf2283}, !- Handle
  2.9.1;                                  !- Version Identifier

OS:SimulationControl,
  {646192cf-fd8a-4ce8-9a59-e2f83939a78f}, !- Handle
  ,                                       !- Do Zone Sizing Calculation
  ,                                       !- Do System Sizing Calculation
  ,                                       !- Do Plant Sizing Calculation
  No;                                     !- Run Simulation for Sizing Periods

OS:Timestep,
  {afbb9020-b3ec-43fe-b69e-0e8b0736e27a}, !- Handle
  6;                                      !- Number of Timesteps per Hour

OS:ShadowCalculation,
  {60d914b7-158b-4a36-a119-0c259ba4181c}, !- Handle
  20,                                     !- Calculation Frequency
  200;                                    !- Maximum Figures in Shadow Overlap Calculations

OS:SurfaceConvectionAlgorithm:Outside,
  {0a34f5b5-196a-4d49-be75-865e6467d6db}, !- Handle
  DOE-2;                                  !- Algorithm

OS:SurfaceConvectionAlgorithm:Inside,
  {23cf4ba3-71ca-4756-bc69-d6a3d1352150}, !- Handle
  TARP;                                   !- Algorithm

OS:ZoneCapacitanceMultiplier:ResearchSpecial,
  {828fa1dd-3796-4a21-bcee-e5cf3aba0134}, !- Handle
  ,                                       !- Temperature Capacity Multiplier
  15,                                     !- Humidity Capacity Multiplier
  ;                                       !- Carbon Dioxide Capacity Multiplier

OS:RunPeriod,
  {4b701b5f-6e2d-452e-b539-4484f225c40e}, !- Handle
  Run Period 1,                           !- Name
  1,                                      !- Begin Month
  1,                                      !- Begin Day of Month
  12,                                     !- End Month
  31,                                     !- End Day of Month
  ,                                       !- Use Weather File Holidays and Special Days
  ,                                       !- Use Weather File Daylight Saving Period
  ,                                       !- Apply Weekend Holiday Rule
  ,                                       !- Use Weather File Rain Indicators
  ,                                       !- Use Weather File Snow Indicators
  ;                                       !- Number of Times Runperiod to be Repeated

OS:YearDescription,
  {59f392f1-4ae1-45aa-9700-b379c8d2ea87}, !- Handle
  2007,                                   !- Calendar Year
  ,                                       !- Day of Week for Start Day
  ;                                       !- Is Leap Year

OS:WeatherFile,
  {282f4dbd-6280-4b2b-9b0f-26528ce69f92}, !- Handle
  Denver Intl Ap,                         !- City
  CO,                                     !- State Province Region
  USA,                                    !- Country
  TMY3,                                   !- Data Source
  725650,                                 !- WMO Number
  39.83,                                  !- Latitude {deg}
  -104.65,                                !- Longitude {deg}
  -7,                                     !- Time Zone {hr}
  1650,                                   !- Elevation {m}
  file:../weather/USA_CO_Denver.Intl.AP.725650_TMY3.epw, !- Url
  E23378AA;                               !- Checksum

OS:AdditionalProperties,
  {fcaff99e-0e7f-4dd3-9e23-26af5824d058}, !- Handle
  {282f4dbd-6280-4b2b-9b0f-26528ce69f92}, !- Object Name
  EPWHeaderCity,                          !- Feature Name 1
  String,                                 !- Feature Data Type 1
  Denver Intl Ap,                         !- Feature Value 1
  EPWHeaderState,                         !- Feature Name 2
  String,                                 !- Feature Data Type 2
  CO,                                     !- Feature Value 2
  EPWHeaderCountry,                       !- Feature Name 3
  String,                                 !- Feature Data Type 3
  USA,                                    !- Feature Value 3
  EPWHeaderDataSource,                    !- Feature Name 4
  String,                                 !- Feature Data Type 4
  TMY3,                                   !- Feature Value 4
  EPWHeaderStation,                       !- Feature Name 5
  String,                                 !- Feature Data Type 5
  725650,                                 !- Feature Value 5
  EPWHeaderLatitude,                      !- Feature Name 6
  Double,                                 !- Feature Data Type 6
  39.829999999999998,                     !- Feature Value 6
  EPWHeaderLongitude,                     !- Feature Name 7
  Double,                                 !- Feature Data Type 7
  -104.65000000000001,                    !- Feature Value 7
  EPWHeaderTimezone,                      !- Feature Name 8
  Double,                                 !- Feature Data Type 8
  -7,                                     !- Feature Value 8
  EPWHeaderAltitude,                      !- Feature Name 9
  Double,                                 !- Feature Data Type 9
  5413.3858267716532,                     !- Feature Value 9
  EPWHeaderLocalPressure,                 !- Feature Name 10
  Double,                                 !- Feature Data Type 10
  0.81937567683596546,                    !- Feature Value 10
  EPWHeaderRecordsPerHour,                !- Feature Name 11
  Double,                                 !- Feature Data Type 11
  0,                                      !- Feature Value 11
  EPWDataAnnualAvgDrybulb,                !- Feature Name 12
  Double,                                 !- Feature Data Type 12
  51.575616438356228,                     !- Feature Value 12
  EPWDataAnnualMinDrybulb,                !- Feature Name 13
  Double,                                 !- Feature Data Type 13
  -2.9200000000000017,                    !- Feature Value 13
  EPWDataAnnualMaxDrybulb,                !- Feature Name 14
  Double,                                 !- Feature Data Type 14
  104,                                    !- Feature Value 14
  EPWDataCDD50F,                          !- Feature Name 15
  Double,                                 !- Feature Data Type 15
  3072.2925000000005,                     !- Feature Value 15
  EPWDataCDD65F,                          !- Feature Name 16
  Double,                                 !- Feature Data Type 16
  883.62000000000035,                     !- Feature Value 16
  EPWDataHDD50F,                          !- Feature Name 17
  Double,                                 !- Feature Data Type 17
  2497.1925000000001,                     !- Feature Value 17
  EPWDataHDD65F,                          !- Feature Name 18
  Double,                                 !- Feature Data Type 18
  5783.5200000000013,                     !- Feature Value 18
  EPWDataAnnualAvgWindspeed,              !- Feature Name 19
  Double,                                 !- Feature Data Type 19
  3.9165296803649667,                     !- Feature Value 19
  EPWDataMonthlyAvgDrybulbs,              !- Feature Name 20
  String,                                 !- Feature Data Type 20
  33.4191935483871&#4431.90142857142857&#4443.02620967741937&#4442.48624999999999&#4459.877741935483854&#4473.57574999999997&#4472.07975806451608&#4472.70008064516134&#4466.49200000000006&#4450.079112903225806&#4437.218250000000005&#4434.582177419354835, !- Feature Value 20
  EPWDataGroundMonthlyTemps,              !- Feature Name 21
  String,                                 !- Feature Data Type 21
  44.08306285945173&#4440.89570904991865&#4440.64045432632048&#4442.153016571250646&#4448.225111118704206&#4454.268919273837525&#4459.508577937551024&#4462.82777283423508&#4463.10975667174995&#4460.41014950381947&#4455.304105212311526&#4449.445696474514364, !- Feature Value 21
  EPWDataWSF,                             !- Feature Name 22
  Double,                                 !- Feature Data Type 22
  0.58999999999999997,                    !- Feature Value 22
  EPWDataMonthlyAvgDailyHighDrybulbs,     !- Feature Name 23
  String,                                 !- Feature Data Type 23
  47.41032258064516&#4446.58642857142857&#4455.15032258064517&#4453.708&#4472.80193548387098&#4488.67600000000002&#4486.1858064516129&#4485.87225806451613&#4482.082&#4463.18064516129033&#4448.73400000000001&#4448.87935483870968, !- Feature Value 23
  EPWDataMonthlyAvgDailyLowDrybulbs,      !- Feature Name 24
  String,                                 !- Feature Data Type 24
  19.347741935483874&#4419.856428571428573&#4430.316129032258065&#4431.112&#4447.41612903225806&#4457.901999999999994&#4459.063870967741934&#4460.956774193548384&#4452.352000000000004&#4438.41612903225806&#4427.002000000000002&#4423.02903225806451, !- Feature Value 24
  EPWDesignHeatingDrybulb,                !- Feature Name 25
  Double,                                 !- Feature Data Type 25
  12.02,                                  !- Feature Value 25
  EPWDesignHeatingWindspeed,              !- Feature Name 26
  Double,                                 !- Feature Data Type 26
  2.8062500000000004,                     !- Feature Value 26
  EPWDesignCoolingDrybulb,                !- Feature Name 27
  Double,                                 !- Feature Data Type 27
  91.939999999999998,                     !- Feature Value 27
  EPWDesignCoolingWetbulb,                !- Feature Name 28
  Double,                                 !- Feature Data Type 28
  59.95131430195849,                      !- Feature Value 28
  EPWDesignCoolingHumidityRatio,          !- Feature Name 29
  Double,                                 !- Feature Data Type 29
  0.0059161086834698092,                  !- Feature Value 29
  EPWDesignCoolingWindspeed,              !- Feature Name 30
  Double,                                 !- Feature Data Type 30
  3.7999999999999989,                     !- Feature Value 30
  EPWDesignDailyTemperatureRange,         !- Feature Name 31
  Double,                                 !- Feature Data Type 31
  24.915483870967748,                     !- Feature Value 31
  EPWDesignDehumidDrybulb,                !- Feature Name 32
  Double,                                 !- Feature Data Type 32
  67.996785714285721,                     !- Feature Value 32
  EPWDesignDehumidHumidityRatio,          !- Feature Name 33
  Double,                                 !- Feature Data Type 33
  0.012133744170488724,                   !- Feature Value 33
  EPWDesignCoolingDirectNormal,           !- Feature Name 34
  Double,                                 !- Feature Data Type 34
  985,                                    !- Feature Value 34
  EPWDesignCoolingDiffuseHorizontal,      !- Feature Name 35
  Double,                                 !- Feature Data Type 35
  84;                                     !- Feature Value 35

OS:Site,
  {4769c641-b51e-46db-944c-6c5b38fbc47c}, !- Handle
  Denver Intl Ap_CO_USA,                  !- Name
  39.83,                                  !- Latitude {deg}
  -104.65,                                !- Longitude {deg}
  -7,                                     !- Time Zone {hr}
  1650,                                   !- Elevation {m}
  Suburbs;                                !- Terrain

OS:ClimateZones,
  {ec6a290c-e85f-49bb-8450-12289cc57101}, !- Handle
  ,                                       !- Active Institution
  ,                                       !- Active Year
  ,                                       !- Climate Zone Institution Name 1
  ,                                       !- Climate Zone Document Name 1
  ,                                       !- Climate Zone Document Year 1
  ,                                       !- Climate Zone Value 1
  Building America,                       !- Climate Zone Institution Name 2
  ,                                       !- Climate Zone Document Name 2
  0,                                      !- Climate Zone Document Year 2
  Cold;                                   !- Climate Zone Value 2

OS:Site:WaterMainsTemperature,
  {f0614f12-6fd4-49f9-925b-41094cba6b02}, !- Handle
  Correlation,                            !- Calculation Method
  ,                                       !- Temperature Schedule Name
  10.8753424657535,                       !- Annual Average Outdoor Air Temperature {C}
  23.1524007936508;                       !- Maximum Difference In Monthly Average Outdoor Air Temperatures {deltaC}

OS:RunPeriodControl:DaylightSavingTime,
  {b5613ea5-a8c6-405d-84e5-7a7efb3d2a90}, !- Handle
  4/7,                                    !- Start Date
  10/26;                                  !- End Date

OS:Site:GroundTemperature:Deep,
  {042ea3b7-9c73-4626-8140-8cf24ea1a727}, !- Handle
  10.8753424657535,                       !- January Deep Ground Temperature {C}
  10.8753424657535,                       !- February Deep Ground Temperature {C}
  10.8753424657535,                       !- March Deep Ground Temperature {C}
  10.8753424657535,                       !- April Deep Ground Temperature {C}
  10.8753424657535,                       !- May Deep Ground Temperature {C}
  10.8753424657535,                       !- June Deep Ground Temperature {C}
  10.8753424657535,                       !- July Deep Ground Temperature {C}
  10.8753424657535,                       !- August Deep Ground Temperature {C}
  10.8753424657535,                       !- September Deep Ground Temperature {C}
  10.8753424657535,                       !- October Deep Ground Temperature {C}
  10.8753424657535,                       !- November Deep Ground Temperature {C}
  10.8753424657535;                       !- December Deep Ground Temperature {C}

OS:ThermalZone,
  {c71ffe06-a47d-4f4c-afb8-51fccfa43b16}, !- Handle
  living zone,                            !- Name
  ,                                       !- Multiplier
  ,                                       !- Ceiling Height {m}
  ,                                       !- Volume {m3}
  ,                                       !- Floor Area {m2}
  ,                                       !- Zone Inside Convection Algorithm
  ,                                       !- Zone Outside Convection Algorithm
  ,                                       !- Zone Conditioning Equipment List Name
  {bae7b102-caff-4e3f-9834-55e7828f7d4a}, !- Zone Air Inlet Port List
  {f8c955e6-6b20-4b91-a7e0-961d35734842}, !- Zone Air Exhaust Port List
  {65b3b77f-7e7c-40a4-90f0-616b08abcbbb}, !- Zone Air Node Name
  {9eccd877-afc0-44e0-8cf0-61bac46c9fbe}, !- Zone Return Air Port List
  ,                                       !- Primary Daylighting Control Name
  ,                                       !- Fraction of Zone Controlled by Primary Daylighting Control
  ,                                       !- Secondary Daylighting Control Name
  ,                                       !- Fraction of Zone Controlled by Secondary Daylighting Control
  ,                                       !- Illuminance Map Name
  ,                                       !- Group Rendering Name
  {1b5e89b6-7830-4953-b1f8-abbb85b6f0a3}, !- Thermostat Name
  No;                                     !- Use Ideal Air Loads

OS:Node,
  {63f9a01b-5be6-4dbc-8af5-aff34682ff47}, !- Handle
  Node 1,                                 !- Name
  {65b3b77f-7e7c-40a4-90f0-616b08abcbbb}, !- Inlet Port
  ;                                       !- Outlet Port

OS:Connection,
  {65b3b77f-7e7c-40a4-90f0-616b08abcbbb}, !- Handle
  {f5936582-e769-409e-83d2-3d3d33bc3849}, !- Name
  {c71ffe06-a47d-4f4c-afb8-51fccfa43b16}, !- Source Object
  11,                                     !- Outlet Port
  {63f9a01b-5be6-4dbc-8af5-aff34682ff47}, !- Target Object
  2;                                      !- Inlet Port

OS:PortList,
  {bae7b102-caff-4e3f-9834-55e7828f7d4a}, !- Handle
  {589d39ae-96f0-45f2-88a8-f565a3474961}, !- Name
  {c71ffe06-a47d-4f4c-afb8-51fccfa43b16}, !- HVAC Component
  {c0bdf321-23cf-4c94-bf65-c867b390e8c1}, !- Port 1
  {e0d15ebf-adca-486c-ae96-646adc37e53c}; !- Port 2

OS:PortList,
  {f8c955e6-6b20-4b91-a7e0-961d35734842}, !- Handle
  {cf15197a-bc65-4566-8550-a784870b618d}, !- Name
  {c71ffe06-a47d-4f4c-afb8-51fccfa43b16}; !- HVAC Component

OS:PortList,
  {9eccd877-afc0-44e0-8cf0-61bac46c9fbe}, !- Handle
  {5a7adcb6-6375-4607-970f-1e1d3ccb1190}, !- Name
  {c71ffe06-a47d-4f4c-afb8-51fccfa43b16}, !- HVAC Component
  {b63a096c-a9a5-4b62-b320-705b718e5c22}, !- Port 1
  {0692104f-0bd3-4b2c-a919-4bc71c3809f0}; !- Port 2

OS:Sizing:Zone,
  {5cc2099a-5c60-4e0d-ac73-ff7c38d039a1}, !- Handle
  {c71ffe06-a47d-4f4c-afb8-51fccfa43b16}, !- Zone or ZoneList Name
  SupplyAirTemperature,                   !- Zone Cooling Design Supply Air Temperature Input Method
  14,                                     !- Zone Cooling Design Supply Air Temperature {C}
  11.11,                                  !- Zone Cooling Design Supply Air Temperature Difference {deltaC}
  SupplyAirTemperature,                   !- Zone Heating Design Supply Air Temperature Input Method
  40,                                     !- Zone Heating Design Supply Air Temperature {C}
  11.11,                                  !- Zone Heating Design Supply Air Temperature Difference {deltaC}
  0.0085,                                 !- Zone Cooling Design Supply Air Humidity Ratio {kg-H2O/kg-air}
  0.008,                                  !- Zone Heating Design Supply Air Humidity Ratio {kg-H2O/kg-air}
  ,                                       !- Zone Heating Sizing Factor
  ,                                       !- Zone Cooling Sizing Factor
  DesignDay,                              !- Cooling Design Air Flow Method
  ,                                       !- Cooling Design Air Flow Rate {m3/s}
  ,                                       !- Cooling Minimum Air Flow per Zone Floor Area {m3/s-m2}
  ,                                       !- Cooling Minimum Air Flow {m3/s}
  ,                                       !- Cooling Minimum Air Flow Fraction
  DesignDay,                              !- Heating Design Air Flow Method
  ,                                       !- Heating Design Air Flow Rate {m3/s}
  ,                                       !- Heating Maximum Air Flow per Zone Floor Area {m3/s-m2}
  ,                                       !- Heating Maximum Air Flow {m3/s}
  ,                                       !- Heating Maximum Air Flow Fraction
  ,                                       !- Design Zone Air Distribution Effectiveness in Cooling Mode
  ,                                       !- Design Zone Air Distribution Effectiveness in Heating Mode
  No,                                     !- Account for Dedicated Outdoor Air System
  NeutralSupplyAir,                       !- Dedicated Outdoor Air System Control Strategy
  autosize,                               !- Dedicated Outdoor Air Low Setpoint Temperature for Design {C}
  autosize;                               !- Dedicated Outdoor Air High Setpoint Temperature for Design {C}

OS:ZoneHVAC:EquipmentList,
  {a8dd8523-c941-430b-8cf3-9edab0f647c7}, !- Handle
  Zone HVAC Equipment List 1,             !- Name
  {c71ffe06-a47d-4f4c-afb8-51fccfa43b16}, !- Thermal Zone
  SequentialLoad,                         !- Load Distribution Scheme
  {5726f697-df27-49ac-bbbc-057fef72d17a}, !- Zone Equipment 1
  1,                                      !- Zone Equipment Cooling Sequence 1
  1,                                      !- Zone Equipment Heating or No-Load Sequence 1
  ,                                       !- Zone Equipment Sequential Cooling Fraction Schedule Name 1
  ,                                       !- Zone Equipment Sequential Heating Fraction Schedule Name 1
  {479c8de2-ba8e-48bf-980f-0725f118f80f}, !- Zone Equipment 2
  2,                                      !- Zone Equipment Cooling Sequence 2
  2,                                      !- Zone Equipment Heating or No-Load Sequence 2
  ,                                       !- Zone Equipment Sequential Cooling Fraction Schedule Name 2
  ;                                       !- Zone Equipment Sequential Heating Fraction Schedule Name 2

OS:ThermalZone,
  {5a852f81-2745-4fd6-bb23-3d6a00611dc8}, !- Handle
  garage zone,                            !- Name
  ,                                       !- Multiplier
  ,                                       !- Ceiling Height {m}
  ,                                       !- Volume {m3}
  ,                                       !- Floor Area {m2}
  ,                                       !- Zone Inside Convection Algorithm
  ,                                       !- Zone Outside Convection Algorithm
  ,                                       !- Zone Conditioning Equipment List Name
  {e0dc7afe-8c5a-4ad9-bb79-12a59576b3dc}, !- Zone Air Inlet Port List
  {1305dcef-e415-42fe-9308-9c664a1b86e0}, !- Zone Air Exhaust Port List
  {ccc0ef88-ecb0-4327-9346-f26d1c693464}, !- Zone Air Node Name
  {aa6f711b-140c-4b0b-a2c5-e58875da96be}, !- Zone Return Air Port List
  ,                                       !- Primary Daylighting Control Name
  ,                                       !- Fraction of Zone Controlled by Primary Daylighting Control
  ,                                       !- Secondary Daylighting Control Name
  ,                                       !- Fraction of Zone Controlled by Secondary Daylighting Control
  ,                                       !- Illuminance Map Name
  ,                                       !- Group Rendering Name
  ,                                       !- Thermostat Name
  No;                                     !- Use Ideal Air Loads

OS:Node,
  {85ce95f9-47db-4e3d-adc2-e18377d21a27}, !- Handle
  Node 2,                                 !- Name
  {ccc0ef88-ecb0-4327-9346-f26d1c693464}, !- Inlet Port
  ;                                       !- Outlet Port

OS:Connection,
  {ccc0ef88-ecb0-4327-9346-f26d1c693464}, !- Handle
  {f19c35e9-d18f-4114-88b9-77b458a0385b}, !- Name
  {5a852f81-2745-4fd6-bb23-3d6a00611dc8}, !- Source Object
  11,                                     !- Outlet Port
  {85ce95f9-47db-4e3d-adc2-e18377d21a27}, !- Target Object
  2;                                      !- Inlet Port

OS:PortList,
  {e0dc7afe-8c5a-4ad9-bb79-12a59576b3dc}, !- Handle
  {9e7e3e3e-317a-4a04-abb3-209686e994c5}, !- Name
  {5a852f81-2745-4fd6-bb23-3d6a00611dc8}; !- HVAC Component

OS:PortList,
  {1305dcef-e415-42fe-9308-9c664a1b86e0}, !- Handle
  {a33131fe-6144-40a3-898f-5ce4361aebdb}, !- Name
  {5a852f81-2745-4fd6-bb23-3d6a00611dc8}; !- HVAC Component

OS:PortList,
  {aa6f711b-140c-4b0b-a2c5-e58875da96be}, !- Handle
  {0b57294c-e42e-42d9-a648-6aed43a348da}, !- Name
  {5a852f81-2745-4fd6-bb23-3d6a00611dc8}; !- HVAC Component

OS:Sizing:Zone,
  {4ef6017c-5927-4088-99c9-35775064aa3a}, !- Handle
  {5a852f81-2745-4fd6-bb23-3d6a00611dc8}, !- Zone or ZoneList Name
  SupplyAirTemperature,                   !- Zone Cooling Design Supply Air Temperature Input Method
  14,                                     !- Zone Cooling Design Supply Air Temperature {C}
  11.11,                                  !- Zone Cooling Design Supply Air Temperature Difference {deltaC}
  SupplyAirTemperature,                   !- Zone Heating Design Supply Air Temperature Input Method
  40,                                     !- Zone Heating Design Supply Air Temperature {C}
  11.11,                                  !- Zone Heating Design Supply Air Temperature Difference {deltaC}
  0.0085,                                 !- Zone Cooling Design Supply Air Humidity Ratio {kg-H2O/kg-air}
  0.008,                                  !- Zone Heating Design Supply Air Humidity Ratio {kg-H2O/kg-air}
  ,                                       !- Zone Heating Sizing Factor
  ,                                       !- Zone Cooling Sizing Factor
  DesignDay,                              !- Cooling Design Air Flow Method
  ,                                       !- Cooling Design Air Flow Rate {m3/s}
  ,                                       !- Cooling Minimum Air Flow per Zone Floor Area {m3/s-m2}
  ,                                       !- Cooling Minimum Air Flow {m3/s}
  ,                                       !- Cooling Minimum Air Flow Fraction
  DesignDay,                              !- Heating Design Air Flow Method
  ,                                       !- Heating Design Air Flow Rate {m3/s}
  ,                                       !- Heating Maximum Air Flow per Zone Floor Area {m3/s-m2}
  ,                                       !- Heating Maximum Air Flow {m3/s}
  ,                                       !- Heating Maximum Air Flow Fraction
  ,                                       !- Design Zone Air Distribution Effectiveness in Cooling Mode
  ,                                       !- Design Zone Air Distribution Effectiveness in Heating Mode
  No,                                     !- Account for Dedicated Outdoor Air System
  NeutralSupplyAir,                       !- Dedicated Outdoor Air System Control Strategy
  autosize,                               !- Dedicated Outdoor Air Low Setpoint Temperature for Design {C}
  autosize;                               !- Dedicated Outdoor Air High Setpoint Temperature for Design {C}

OS:ZoneHVAC:EquipmentList,
  {5b1c38a8-aa37-4218-818f-f79cc77cbed0}, !- Handle
  Zone HVAC Equipment List 2,             !- Name
  {5a852f81-2745-4fd6-bb23-3d6a00611dc8}; !- Thermal Zone

OS:Space,
  {16d756b1-36f9-48f7-9649-8c6753a8896d}, !- Handle
  garage space,                           !- Name
  {f29d4643-01ee-42e8-9ae7-a79e3ae515a2}, !- Space Type Name
  ,                                       !- Default Construction Set Name
  ,                                       !- Default Schedule Set Name
  -0,                                     !- Direction of Relative North {deg}
  0,                                      !- X Origin {m}
  0,                                      !- Y Origin {m}
  0,                                      !- Z Origin {m}
  ,                                       !- Building Story Name
  {5a852f81-2745-4fd6-bb23-3d6a00611dc8}; !- Thermal Zone Name

OS:Surface,
  {4576bf45-cac0-48bc-ad91-3237beda2d3c}, !- Handle
  Surface 1,                              !- Name
  Floor,                                  !- Surface Type
  {5ab9ac2b-c442-4843-98e5-34353f6a8f39}, !- Construction Name
  {16d756b1-36f9-48f7-9649-8c6753a8896d}, !- Space Name
  Foundation,                             !- Outside Boundary Condition
  {9b205672-8114-46d9-ba52-41141a390a5b}, !- Outside Boundary Condition Object
  NoSun,                                  !- Sun Exposure
  NoWind,                                 !- Wind Exposure
  ,                                       !- View Factor to Ground
  ,                                       !- Number of Vertices
  8.91701625975123, -3.048, 0,            !- X,Y,Z Vertex 1 {m}
  8.91701625975123, 3.048, 0,             !- X,Y,Z Vertex 2 {m}
  12.5746162597512, 3.048, 0,             !- X,Y,Z Vertex 3 {m}
  12.5746162597512, -3.048, 0;            !- X,Y,Z Vertex 4 {m}

OS:Surface,
  {ec1552a0-ab0d-44f6-872f-513b68a9b8ac}, !- Handle
  Surface 2,                              !- Name
  Wall,                                   !- Surface Type
  {a29aeff6-b1f2-45f1-9fab-87c56e111df3}, !- Construction Name
  {16d756b1-36f9-48f7-9649-8c6753a8896d}, !- Space Name
  Surface,                                !- Outside Boundary Condition
  {d6ba4cc6-cd85-40d0-96b5-12374e18a2cd}, !- Outside Boundary Condition Object
  NoSun,                                  !- Sun Exposure
  NoWind,                                 !- Wind Exposure
  ,                                       !- View Factor to Ground
  ,                                       !- Number of Vertices
  8.91701625975123, 3.048, 2.4384,        !- X,Y,Z Vertex 1 {m}
  8.91701625975123, 3.048, 0,             !- X,Y,Z Vertex 2 {m}
  8.91701625975123, 0, 0,                 !- X,Y,Z Vertex 3 {m}
  8.91701625975123, 0, 2.4384;            !- X,Y,Z Vertex 4 {m}

OS:Surface,
  {c4d25536-363d-4bb6-b72f-dff610d64a2f}, !- Handle
  Surface 3,                              !- Name
  Wall,                                   !- Surface Type
  {a29aeff6-b1f2-45f1-9fab-87c56e111df3}, !- Construction Name
  {16d756b1-36f9-48f7-9649-8c6753a8896d}, !- Space Name
  Surface,                                !- Outside Boundary Condition
  {2f455a3a-9e30-487e-9f15-dbf47c0df9e0}, !- Outside Boundary Condition Object
  NoSun,                                  !- Sun Exposure
  NoWind,                                 !- Wind Exposure
  ,                                       !- View Factor to Ground
  ,                                       !- Number of Vertices
  12.5746162597512, 3.048, 2.4384,        !- X,Y,Z Vertex 1 {m}
  12.5746162597512, 3.048, 0,             !- X,Y,Z Vertex 2 {m}
  8.91701625975123, 3.048, 0,             !- X,Y,Z Vertex 3 {m}
  8.91701625975123, 3.048, 2.4384;        !- X,Y,Z Vertex 4 {m}

OS:Surface,
  {132ba762-d99e-4dde-a46b-cd9354974bbe}, !- Handle
  Surface 4,                              !- Name
  Wall,                                   !- Surface Type
  {966e8fed-c9c7-4c16-9132-78728ccb333f}, !- Construction Name
  {16d756b1-36f9-48f7-9649-8c6753a8896d}, !- Space Name
  Outdoors,                               !- Outside Boundary Condition
  ,                                       !- Outside Boundary Condition Object
  SunExposed,                             !- Sun Exposure
  WindExposed,                            !- Wind Exposure
  ,                                       !- View Factor to Ground
  ,                                       !- Number of Vertices
  12.5746162597512, -3.048, 2.4384,       !- X,Y,Z Vertex 1 {m}
  12.5746162597512, -3.048, 0,            !- X,Y,Z Vertex 2 {m}
  12.5746162597512, 3.048, 0,             !- X,Y,Z Vertex 3 {m}