!- NOTE: Auto-generated from /test/osw_files/SFD_HVACSizing_Load_1story_PB_UA_Vented.osw

OS:Version,
  {ce0176d5-ea80-4f1d-b73b-291984c52bf7}, !- Handle
  2.8.0;                                  !- Version Identifier

OS:Building,
  {7fb39454-fd49-479e-9e9b-54ce4ee9e05e}, !- Handle
  Building 1,                             !- Name
  ,                                       !- Building Sector Type
  22.5,                                   !- North Axis {deg}
  ,                                       !- Nominal Floor to Floor Height {m}
  ,                                       !- Space Type Name
  ,                                       !- Default Construction Set Name
  ,                                       !- Default Schedule Set Name
  1,                                      !- Standards Number of Stories
  1,                                      !- Standards Number of Above Ground Stories
  ,                                       !- Standards Template
  singlefamilydetached,                   !- Standards Building Type
  1;                                      !- Standards Number of Living Units

OS:Facility,
  {5894ec6d-7fc6-438d-ac91-1af48e3c5def}; !- Handle

OS:Site,
  {29413c41-4c44-42f3-a679-7b11978b32cc}, !- Handle
  Denver Intl Ap_CO_USA,                  !- Name
  39.83,                                  !- Latitude {deg}
  -104.65,                                !- Longitude {deg}
  -7,                                     !- Time Zone {hr}
  1650,                                   !- Elevation {m}
  Suburbs;                                !- Terrain

OS:SimulationControl,
  {b70e7ea9-1e78-47ec-976c-93215260bae4}, !- Handle
  ,                                       !- Do Zone Sizing Calculation
  ,                                       !- Do System Sizing Calculation
  ,                                       !- Do Plant Sizing Calculation
  No;                                     !- Run Simulation for Sizing Periods

OS:Sizing:Parameters,
  {731ca095-8341-4e78-b4fc-d747e8dd009f}, !- Handle
  1.25,                                   !- Heating Sizing Factor
  1.15;                                   !- Cooling Sizing Factor

OS:Timestep,
  {32ee043f-f952-4e54-adf4-cdd780e984f7}, !- Handle
  6;                                      !- Number of Timesteps per Hour

OS:ShadowCalculation,
  {ac861275-ac92-49be-8f81-048a8dfa19ce}, !- Handle
  20,                                     !- Calculation Frequency
  200;                                    !- Maximum Figures in Shadow Overlap Calculations

OS:HeatBalanceAlgorithm,
  {b3bd3309-9de8-45cc-aa7a-d3d4c0706b90}, !- Handle
  ConductionTransferFunction,             !- Algorithm
  200;                                    !- Surface Temperature Upper Limit {C}

OS:RunPeriod,
  {35902456-30d3-4c66-a365-629ceff81a89}, !- Handle
  Run Period 1,                           !- Name
  1,                                      !- Begin Month
  1,                                      !- Begin Day of Month
  12,                                     !- End Month
  31,                                     !- End Day of Month
  ,                                       !- Use Weather File Holidays and Special Days
  ,                                       !- Use Weather File Daylight Saving Period
  ,                                       !- Apply Weekend Holiday Rule
  ,                                       !- Use Weather File Rain Indicators
  ,                                       !- Use Weather File Snow Indicators
  ;                                       !- Number of Times Runperiod to be Repeated

OS:LifeCycleCost:Parameters,
  {c0b9c2d9-ca04-4d76-b4e7-8ed3ccfb2060}, !- Handle
  ,                                       !- Analysis Type
  ,                                       !- Discounting Convention
  ,                                       !- Inflation Approach
  ,                                       !- Real Discount Rate
  ,                                       !- Nominal Discount Rate
  ,                                       !- Inflation
  ,                                       !- Base Date Month
  ,                                       !- Base Date Year
  ,                                       !- Service Date Month
  ,                                       !- Service Date Year
  ;                                       !- Length of Study Period in Years

OS:SurfaceConvectionAlgorithm:Outside,
  {1f056ed8-ff51-4cb1-b01f-ba52871d4c20}, !- Handle
  DOE-2;                                  !- Algorithm

OS:SurfaceConvectionAlgorithm:Inside,
  {20959100-ccf0-4b86-a27b-7b19fe722116}, !- Handle
  TARP;                                   !- Algorithm

OS:ZoneCapacitanceMultiplier:ResearchSpecial,
  {baeb5855-c53b-46cb-849c-3ee806fb0fa2}, !- Handle
  ,                                       !- Temperature Capacity Multiplier
  15,                                     !- Humidity Capacity Multiplier
  ;                                       !- Carbon Dioxide Capacity Multiplier

OS:WeatherFile,
  {e0958360-5ee2-4cbd-9d0f-b38f401ec129}, !- Handle
  Denver Intl Ap,                         !- City
  CO,                                     !- State Province Region
  USA,                                    !- Country
  TMY3,                                   !- Data Source
  725650,                                 !- WMO Number
  39.83,                                  !- Latitude {deg}
  -104.65,                                !- Longitude {deg}
  -7,                                     !- Time Zone {hr}
  1650,                                   !- Elevation {m}
  file:../weather/USA_CO_Denver.Intl.AP.725650_TMY3.epw, !- Url
  E23378AA;                               !- Checksum

OS:AdditionalProperties,
  {91368225-38ad-4e6e-b1e2-f53c0935adf1}, !- Handle
  {e0958360-5ee2-4cbd-9d0f-b38f401ec129}, !- Object Name
  EPWHeaderCity,                          !- Feature Name 1
  String,                                 !- Feature Data Type 1
  Denver Intl Ap,                         !- Feature Value 1
  EPWHeaderState,                         !- Feature Name 2
  String,                                 !- Feature Data Type 2
  CO,                                     !- Feature Value 2
  EPWHeaderCountry,                       !- Feature Name 3
  String,                                 !- Feature Data Type 3
  USA,                                    !- Feature Value 3
  EPWHeaderDataSource,                    !- Feature Name 4
  String,                                 !- Feature Data Type 4
  TMY3,                                   !- Feature Value 4
  EPWHeaderStation,                       !- Feature Name 5
  String,                                 !- Feature Data Type 5
  725650,                                 !- Feature Value 5
  EPWHeaderLatitude,                      !- Feature Name 6
  Double,                                 !- Feature Data Type 6
  39.829999999999998,                     !- Feature Value 6
  EPWHeaderLongitude,                     !- Feature Name 7
  Double,                                 !- Feature Data Type 7
  -104.65000000000001,                    !- Feature Value 7
  EPWHeaderTimezone,                      !- Feature Name 8
  Double,                                 !- Feature Data Type 8
  -7,                                     !- Feature Value 8
  EPWHeaderAltitude,                      !- Feature Name 9
  Double,                                 !- Feature Data Type 9
  5413.3858267716532,                     !- Feature Value 9
  EPWHeaderLocalPressure,                 !- Feature Name 10
  Double,                                 !- Feature Data Type 10
  0.81937567683596546,                    !- Feature Value 10
  EPWHeaderRecordsPerHour,                !- Feature Name 11
  Double,                                 !- Feature Data Type 11
  0,                                      !- Feature Value 11
  EPWDataAnnualAvgDrybulb,                !- Feature Name 12
  Double,                                 !- Feature Data Type 12
  51.575616438356228,                     !- Feature Value 12
  EPWDataAnnualMinDrybulb,                !- Feature Name 13
  Double,                                 !- Feature Data Type 13
  -2.9200000000000017,                    !- Feature Value 13
  EPWDataAnnualMaxDrybulb,                !- Feature Name 14
  Double,                                 !- Feature Data Type 14
  104,                                    !- Feature Value 14
  EPWDataCDD50F,                          !- Feature Name 15
  Double,                                 !- Feature Data Type 15
  3072.2925000000005,                     !- Feature Value 15
  EPWDataCDD65F,                          !- Feature Name 16
  Double,                                 !- Feature Data Type 16
  883.62000000000035,                     !- Feature Value 16
  EPWDataHDD50F,                          !- Feature Name 17
  Double,                                 !- Feature Data Type 17
  2497.1925000000001,                     !- Feature Value 17
  EPWDataHDD65F,                          !- Feature Name 18
  Double,                                 !- Feature Data Type 18
  5783.5200000000013,                     !- Feature Value 18
  EPWDataAnnualAvgWindspeed,              !- Feature Name 19
  Double,                                 !- Feature Data Type 19
  3.9165296803649667,                     !- Feature Value 19
  EPWDataMonthlyAvgDrybulbs,              !- Feature Name 20
  String,                                 !- Feature Data Type 20
  33.4191935483871&#4431.90142857142857&#4443.02620967741937&#4442.48624999999999&#4459.877741935483854&#4473.57574999999997&#4472.07975806451608&#4472.70008064516134&#4466.49200000000006&#4450.079112903225806&#4437.218250000000005&#4434.582177419354835, !- Feature Value 20
  EPWDataGroundMonthlyTemps,              !- Feature Name 21
  String,                                 !- Feature Data Type 21
  44.08306285945173&#4440.89570904991865&#4440.64045432632048&#4442.153016571250646&#4448.225111118704206&#4454.268919273837525&#4459.508577937551024&#4462.82777283423508&#4463.10975667174995&#4460.41014950381947&#4455.304105212311526&#4449.445696474514364, !- Feature Value 21
  EPWDataWSF,                             !- Feature Name 22
  Double,                                 !- Feature Data Type 22
  0.58999999999999997,                    !- Feature Value 22
  EPWDataMonthlyAvgDailyHighDrybulbs,     !- Feature Name 23
  String,                                 !- Feature Data Type 23
  47.41032258064516&#4446.58642857142857&#4455.15032258064517&#4453.708&#4472.80193548387098&#4488.67600000000002&#4486.1858064516129&#4485.87225806451613&#4482.082&#4463.18064516129033&#4448.73400000000001&#4448.87935483870968, !- Feature Value 23
  EPWDataMonthlyAvgDailyLowDrybulbs,      !- Feature Name 24
  String,                                 !- Feature Data Type 24
  19.347741935483874&#4419.856428571428573&#4430.316129032258065&#4431.112&#4447.41612903225806&#4457.901999999999994&#4459.063870967741934&#4460.956774193548384&#4452.352000000000004&#4438.41612903225806&#4427.002000000000002&#4423.02903225806451, !- Feature Value 24
  EPWDesignHeatingDrybulb,                !- Feature Name 25
  Double,                                 !- Feature Data Type 25
  12.02,                                  !- Feature Value 25
  EPWDesignHeatingWindspeed,              !- Feature Name 26
  Double,                                 !- Feature Data Type 26
  2.8062500000000004,                     !- Feature Value 26
  EPWDesignCoolingDrybulb,                !- Feature Name 27
  Double,                                 !- Feature Data Type 27
  91.939999999999998,                     !- Feature Value 27
  EPWDesignCoolingWetbulb,                !- Feature Name 28
  Double,                                 !- Feature Data Type 28
  59.95131430195849,                      !- Feature Value 28
  EPWDesignCoolingHumidityRatio,          !- Feature Name 29
  Double,                                 !- Feature Data Type 29
  0.0059161086834698092,                  !- Feature Value 29
  EPWDesignCoolingWindspeed,              !- Feature Name 30
  Double,                                 !- Feature Data Type 30
  3.7999999999999989,                     !- Feature Value 30
  EPWDesignDailyTemperatureRange,         !- Feature Name 31
  Double,                                 !- Feature Data Type 31
  24.915483870967748,                     !- Feature Value 31
  EPWDesignDehumidDrybulb,                !- Feature Name 32
  Double,                                 !- Feature Data Type 32
  67.996785714285721,                     !- Feature Value 32
  EPWDesignDehumidHumidityRatio,          !- Feature Name 33
  Double,                                 !- Feature Data Type 33
  0.012133744170488724,                   !- Feature Value 33
  EPWDesignCoolingDirectNormal,           !- Feature Name 34
  Double,                                 !- Feature Data Type 34
  985,                                    !- Feature Value 34
  EPWDesignCoolingDiffuseHorizontal,      !- Feature Name 35
  Double,                                 !- Feature Data Type 35
  84;                                     !- Feature Value 35

OS:YearDescription,
  {850646e1-c299-41ec-8f2d-c1769dff9b4a}, !- Handle
  ,                                       !- Calendar Year
  Monday;                                 !- Day of Week for Start Day

OS:ClimateZones,
  {8567456f-0314-481a-8807-47afda78aee2}, !- Handle
  ,                                       !- Active Institution
  ,                                       !- Active Year
  ,                                       !- Climate Zone Institution Name 1
  ,                                       !- Climate Zone Document Name 1
  ,                                       !- Climate Zone Document Year 1
  ,                                       !- Climate Zone Value 1
  Building America,                       !- Climate Zone Institution Name 2
  ,                                       !- Climate Zone Document Name 2
  0,                                      !- Climate Zone Document Year 2
  Cold;                                   !- Climate Zone Value 2

OS:Site:WaterMainsTemperature,
  {97f7bba8-54d0-4ee2-9f4f-a7afc59ae62b}, !- Handle
  Correlation,                            !- Calculation Method
  ,                                       !- Temperature Schedule Name
  10.8753424657535,                       !- Annual Average Outdoor Air Temperature {C}
  23.1524007936508;                       !- Maximum Difference In Monthly Average Outdoor Air Temperatures {deltaC}

OS:RunPeriodControl:DaylightSavingTime,
  {1f597a92-5eb5-4c1c-a74d-8897662f01ac}, !- Handle
  4/7,                                    !- Start Date
  10/26;                                  !- End Date

OS:Site:GroundTemperature:Deep,
  {ee038c95-52ca-4239-8c00-60c35a1aa02d}, !- Handle
  10.8753424657535,                       !- January Deep Ground Temperature {C}
  10.8753424657535,                       !- February Deep Ground Temperature {C}
  10.8753424657535,                       !- March Deep Ground Temperature {C}
  10.8753424657535,                       !- April Deep Ground Temperature {C}
  10.8753424657535,                       !- May Deep Ground Temperature {C}
  10.8753424657535,                       !- June Deep Ground Temperature {C}
  10.8753424657535,                       !- July Deep Ground Temperature {C}
  10.8753424657535,                       !- August Deep Ground Temperature {C}
  10.8753424657535,                       !- September Deep Ground Temperature {C}
  10.8753424657535,                       !- October Deep Ground Temperature {C}
  10.8753424657535,                       !- November Deep Ground Temperature {C}
  10.8753424657535;                       !- December Deep Ground Temperature {C}

OS:ThermalZone,
  {38210df5-cf1b-4c0c-a389-8246b655661e}, !- Handle
  living zone,                            !- Name
  ,                                       !- Multiplier
  ,                                       !- Ceiling Height {m}
  ,                                       !- Volume {m3}
  ,                                       !- Floor Area {m2}
  ,                                       !- Zone Inside Convection Algorithm
  ,                                       !- Zone Outside Convection Algorithm
  ,                                       !- Zone Conditioning Equipment List Name
  {814e38ba-1049-431a-9766-cfc65517eefa}, !- Zone Air Inlet Port List
  {02132d27-1c55-46be-8205-4fd0e486fd03}, !- Zone Air Exhaust Port List
  {d0f92160-cc1c-4ca1-83e7-9a45b3a526d4}, !- Zone Air Node Name
  {08f5fa94-8f5c-437d-a7e9-abd86fe45acf}, !- Zone Return Air Port List
  ,                                       !- Primary Daylighting Control Name
  ,                                       !- Fraction of Zone Controlled by Primary Daylighting Control
  ,                                       !- Secondary Daylighting Control Name
  ,                                       !- Fraction of Zone Controlled by Secondary Daylighting Control
  ,                                       !- Illuminance Map Name
  ,                                       !- Group Rendering Name
  ,                                       !- Thermostat Name
  No;                                     !- Use Ideal Air Loads

OS:Node,
  {722176e5-f59e-45a8-a28c-ff18e03f89c0}, !- Handle
  Node 1,                                 !- Name
  {d0f92160-cc1c-4ca1-83e7-9a45b3a526d4}, !- Inlet Port
  ;                                       !- Outlet Port

OS:Connection,
  {d0f92160-cc1c-4ca1-83e7-9a45b3a526d4}, !- Handle
  {ec09bc32-ac2a-4a1f-a2c0-36e37968c8d3}, !- Name
  {38210df5-cf1b-4c0c-a389-8246b655661e}, !- Source Object
  11,                                     !- Outlet Port
  {722176e5-f59e-45a8-a28c-ff18e03f89c0}, !- Target Object
  2;                                      !- Inlet Port

OS:PortList,
  {814e38ba-1049-431a-9766-cfc65517eefa}, !- Handle
  {2014d2b0-4c3c-447f-a28a-63ce17286589}, !- Name
  {38210df5-cf1b-4c0c-a389-8246b655661e}; !- HVAC Component

OS:PortList,
  {02132d27-1c55-46be-8205-4fd0e486fd03}, !- Handle
  {9e1c62ff-8439-4b75-acb7-fc22934360db}, !- Name
  {38210df5-cf1b-4c0c-a389-8246b655661e}; !- HVAC Component

OS:PortList,
  {08f5fa94-8f5c-437d-a7e9-abd86fe45acf}, !- Handle
  {5a559f45-94ad-4a11-89e0-93ec6aa9d1fe}, !- Name
  {38210df5-cf1b-4c0c-a389-8246b655661e}; !- HVAC Component

OS:Sizing:Zone,
  {27416058-8c8d-4dbb-a87c-7b7f0de534cc}, !- Handle
  {38210df5-cf1b-4c0c-a389-8246b655661e}, !- Zone or ZoneList Name
  SupplyAirTemperature,                   !- Zone Cooling Design Supply Air Temperature Input Method
  14,                                     !- Zone Cooling Design Supply Air Temperature {C}
  11.11,                                  !- Zone Cooling Design Supply Air Temperature Difference {deltaC}
  SupplyAirTemperature,                   !- Zone Heating Design Supply Air Temperature Input Method
  40,                                     !- Zone Heating Design Supply Air Temperature {C}
  11.11,                                  !- Zone Heating Design Supply Air Temperature Difference {deltaC}
  0.0085,                                 !- Zone Cooling Design Supply Air Humidity Ratio {kg-H2O/kg-air}
  0.008,                                  !- Zone Heating Design Supply Air Humidity Ratio {kg-H2O/kg-air}
  ,                                       !- Zone Heating Sizing Factor
  ,                                       !- Zone Cooling Sizing Factor
  DesignDay,                              !- Cooling Design Air Flow Method
  ,                                       !- Cooling Design Air Flow Rate {m3/s}
  ,                                       !- Cooling Minimum Air Flow per Zone Floor Area {m3/s-m2}
  ,                                       !- Cooling Minimum Air Flow {m3/s}
  ,                                       !- Cooling Minimum Air Flow Fraction
  DesignDay,                              !- Heating Design Air Flow Method
  ,                                       !- Heating Design Air Flow Rate {m3/s}
  ,                                       !- Heating Maximum Air Flow per Zone Floor Area {m3/s-m2}
  ,                                       !- Heating Maximum Air Flow {m3/s}
  ,                                       !- Heating Maximum Air Flow Fraction
  ,                                       !- Design Zone Air Distribution Effectiveness in Cooling Mode
  ,                                       !- Design Zone Air Distribution Effectiveness in Heating Mode
  No,                                     !- Account for Dedicated Outdoor Air System
  NeutralSupplyAir,                       !- Dedicated Outdoor Air System Control Strategy
  autosize,                               !- Dedicated Outdoor Air Low Setpoint Temperature for Design {C}
  autosize;                               !- Dedicated Outdoor Air High Setpoint Temperature for Design {C}

OS:ZoneHVAC:EquipmentList,
  {45868841-9e04-4706-be25-ca1ba4cf6097}, !- Handle
  Zone HVAC Equipment List 1,             !- Name
  {38210df5-cf1b-4c0c-a389-8246b655661e}; !- Thermal Zone

OS:Space,
  {ff781af8-1d71-4fca-8982-b7969eab93bf}, !- Handle
  living space,                           !- Name
  {60ff3a82-9e9d-4214-a2c4-5a30571f4fb2}, !- Space Type Name
  ,                                       !- Default Construction Set Name
  ,                                       !- Default Schedule Set Name
  -0,                                     !- Direction of Relative North {deg}
  0,                                      !- X Origin {m}
  0,                                      !- Y Origin {m}
  0.9144,                                 !- Z Origin {m}
  ,                                       !- Building Story Name
  {38210df5-cf1b-4c0c-a389-8246b655661e}, !- Thermal Zone Name
  ,                                       !- Part of Total Floor Area
  ,                                       !- Design Specification Outdoor Air Object Name
  {7432182a-9e8b-444f-b6aa-bcabd19285b5}; !- Building Unit Name

OS:Surface,
  {32a1d1a7-155a-4fee-b418-f5ef82e9431e}, !- Handle
  Surface 1,                              !- Name
  Floor,                                  !- Surface Type
  {b4440898-553c-4b30-92ec-d1af7cfc69cf}, !- Construction Name
  {ff781af8-1d71-4fca-8982-b7969eab93bf}, !- Space Name
  Surface,                                !- Outside Boundary Condition
  {673ca34a-f62a-4962-843f-4de5eb24aa03}, !- Outside Boundary Condition Object
  NoSun,                                  !- Sun Exposure
  NoWind,                                 !- Wind Exposure
  ,                                       !- View Factor to Ground
  ,                                       !- Number of Vertices
  0, 0, -1.11022302462516e-016,           !- X,Y,Z Vertex 1 {m}
  0, 7.01040000037894, -1.11022302462516e-016, !- X,Y,Z Vertex 2 {m}
  11.2775999993904, 7.01040000037894, -1.11022302462516e-016, !- X,Y,Z Vertex 3 {m}
  11.2775999993904, 0, -1.11022302462516e-016; !- X,Y,Z Vertex 4 {m}

OS:Surface,
  {0c759735-dce0-469a-abb8-1701f4dd8140}, !- Handle
  Surface 2,                              !- Name
  Wall,                                   !- Surface Type
  {a359bbd1-4ff5-4624-ab47-2790af0fe336}, !- Construction Name
  {ff781af8-1d71-4fca-8982-b7969eab93bf}, !- Space Name
  Outdoors,                               !- Outside Boundary Condition
  ,                                       !- Outside Boundary Condition Object
  SunExposed,                             !- Sun Exposure
  WindExposed,                            !- Wind Exposure
  ,                                       !- View Factor to Ground
  ,                                       !- Number of Vertices
  0, 7.01040000037894, 2.4384,            !- X,Y,Z Vertex 1 {m}
  0, 7.01040000037894, -1.11022302462516e-016, !- X,Y,Z Vertex 2 {m}
  0, 0, -1.11022302462516e-016,           !- X,Y,Z Vertex 3 {m}
  0, 0, 2.4384;                           !- X,Y,Z Vertex 4 {m}

OS:Surface,
  {2185c701-71ea-4b10-8ef6-292419b73f4e}, !- Handle
  Surface 3,                              !- Name
  Wall,                                   !- Surface Type
  {a359bbd1-4ff5-4624-ab47-2790af0fe336}, !- Construction Name
  {ff781af8-1d71-4fca-8982-b7969eab93bf}, !- Space Name
  Outdoors,                               !- Outside Boundary Condition
  ,                                       !- Outside Boundary Condition Object
  SunExposed,                             !- Sun Exposure
  WindExposed,                            !- Wind Exposure
  ,                                       !- View Factor to Ground
  ,                                       !- Number of Vertices
  11.2775999993904, 7.01040000037894, 2.4384, !- X,Y,Z Vertex 1 {m}
  11.2775999993904, 7.01040000037894, -1.11022302462516e-016, !- X,Y,Z Vertex 2 {m}
  0, 7.01040000037894, -1.11022302462516e-016, !- X,Y,Z Vertex 3 {m}
  0, 7.01040000037894, 2.4384;            !- X,Y,Z Vertex 4 {m}

OS:Surface,
  {63346d23-bd95-490b-a568-38db5d01faf7}, !- Handle
  Surface 4,                              !- Name
  Wall,                                   !- Surface Type
  {a359bbd1-4ff5-4624-ab47-2790af0fe336}, !- Construction Name
  {ff781af8-1d71-4fca-8982-b7969eab93bf}, !- Space Name
  Outdoors,                               !- Outside Boundary Condition
  ,                                       !- Outside Boundary Condition Object
  SunExposed,                             !- Sun Exposure
  WindExposed,                            !- Wind Exposure
  ,                                       !- View Factor to Ground
  ,                                       !- Number of Vertices
  11.2775999993904, 0, 2.4384,            !- X,Y,Z Vertex 1 {m}
  11.2775999993904, 0, -1.11022302462516e-016, !- X,Y,Z Vertex 2 {m}
  11.2775999993904, 7.01040000037894, -1.11022302462516e-016, !- X,Y,Z Vertex 3 {m}
  11.2775999993904, 7.01040000037894, 2.4384; !- X,Y,Z Vertex 4 {m}

OS:Surface,
  {0ee872b2-dc2b-4efd-9cc4-1ee1d0fe1c51}, !- Handle
  Surface 5,                              !- Name
  Wall,                                   !- Surface Type
  {a359bbd1-4ff5-4624-ab47-2790af0fe336}, !- Construction Name
  {ff781af8-1d71-4fca-8982-b7969eab93bf}, !- Space Name
  Outdoors,                               !- Outside Boundary Condition
  ,                                       !- Outside Boundary Condition Object
  SunExposed,                             !- Sun Exposure
  WindExposed,                            !- Wind Exposure
  ,                                       !- View Factor to Ground
  ,                                       !- Number of Vertices
  11.2775999993904, 0, -1.11022302462516e-016, !- X,Y,Z Vertex 1 {m}
  11.2775999993904, 0, 2.4384,            !- X,Y,Z Vertex 2 {m}
  1.04865714285714, 0, 2.4384,            !- X,Y,Z Vertex 3 {m}
  1.04865714285714, 0, -1.11022302462516e-016; !- X,Y,Z Vertex 4 {m}

OS:Surface,
  {7ecb1256-1d28-4c44-8c36-e9244ae5b916}, !- Handle
  Surface 6,                              !- Name
  RoofCeiling,                            !- Surface Type
  {bd47cfbb-abcc-4a36-bb8f-80aa58d1c721}, !- Construction Name
  {ff781af8-1d71-4fca-8982-b7969eab93bf}, !- Space Name
  Surface,                                !- Outside Boundary Condition
  {cc1fb03a-3064-451c-9dd5-f50d2554a84c}, !- Outside Boundary Condition Object
  NoSun,                                  !- Sun Exposure
  NoWind,                                 !- Wind Exposure
  ,                                       !- View Factor to Ground
  ,                                       !- Number of Vertices
  11.2775999993904, 0, 2.4384,            !- X,Y,Z Vertex 1 {m}
  11.2775999993904, 7.01040000037894, 2.4384, !- X,Y,Z Vertex 2 {m}
  0, 7.01040000037894, 2.4384,            !- X,Y,Z Vertex 3 {m}
  0, 0, 2.4384;                           !- X,Y,Z Vertex 4 {m}

OS:SpaceType,
  {60ff3a82-9e9d-4214-a2c4-5a30571f4fb2}, !- Handle
  Space Type 1,                           !- Name
  ,                                       !- Default Construction Set Name
  ,                                       !- Default Schedule Set Name
  ,                                       !- Group Rendering Name
  ,                                       !- Design Specification Outdoor Air Object Name
  ,                                       !- Standards Template
  ,                                       !- Standards Building Type
  living;                                 !- Standards Space Type

OS:Surface,
  {cc1fb03a-3064-451c-9dd5-f50d2554a84c}, !- Handle
  Surface 7,                              !- Name
  Floor,                                  !- Surface Type
  {6c55c654-ccc9-4f74-b203-463bb3543539}, !- Construction Name
  {667102e1-a779-46ab-a8ab-3e4f917d1b99}, !- Space Name
  Surface,                                !- Outside Boundary Condition
  {7ecb1256-1d28-4c44-8c36-e9244ae5b916}, !- Outside Boundary Condition Object
  NoSun,                                  !- Sun Exposure
  NoWind,                                 !- Wind Exposure
  ,                                       !- View Factor to Ground
  ,                                       !- Number of Vertices
  0, 7.01040000037894, -4.44089209850063e-016, !- X,Y,Z Vertex 1 {m}
  11.2775999993904, 7.01040000037894, -4.44089209850063e-016, !- X,Y,Z Vertex 2 {m}
  11.2775999993904, 0, -4.44089209850063e-016, !- X,Y,Z Vertex 3 {m}
  0, 0, -4.44089209850063e-016;           !- X,Y,Z Vertex 4 {m}

OS:Surface,
  {bc2882d6-b525-49b8-ae79-427d0c4300f4}, !- Handle
  Surface 8,                              !- Name
  RoofCeiling,                            !- Surface Type
  {41f551cd-eaad-4a49-b9e4-6e215d85af21}, !- Construction Name
  {667102e1-a779-46ab-a8ab-3e4f917d1b99}, !- Space Name
  Outdoors,                               !- Outside Boundary Condition
  ,                                       !- Outside Boundary Condition Object