!- NOTE: Auto-generated from /test/osw_files/SFD_HVACSizing_Equip_Dehumidifier_Auto_Miami.osw

OS:Version,
  {c00fdc9d-31d7-4e45-bb90-9b88638800a2}, !- Handle
  2.9.0;                                  !- Version Identifier

OS:SimulationControl,
  {29a27689-4d53-407a-8cb5-3f4082b2798d}, !- Handle
  ,                                       !- Do Zone Sizing Calculation
  ,                                       !- Do System Sizing Calculation
  ,                                       !- Do Plant Sizing Calculation
  No;                                     !- Run Simulation for Sizing Periods

OS:Timestep,
  {5ea6f3ff-0d01-4870-a4ba-7434e682f3a1}, !- Handle
  6;                                      !- Number of Timesteps per Hour

OS:ShadowCalculation,
  {7e980932-2424-4873-b10b-5b8b6b29f8fc}, !- Handle
  20,                                     !- Calculation Frequency
  200;                                    !- Maximum Figures in Shadow Overlap Calculations

OS:SurfaceConvectionAlgorithm:Outside,
  {faa0ab32-3a79-4683-88d3-d905d3489277}, !- Handle
  DOE-2;                                  !- Algorithm

OS:SurfaceConvectionAlgorithm:Inside,
  {48f0f837-9719-4b72-8016-fc18756c8d52}, !- Handle
  TARP;                                   !- Algorithm

OS:ZoneCapacitanceMultiplier:ResearchSpecial,
  {f3bec6ad-3a6c-42c6-a87e-9df415f8c4b0}, !- Handle
  ,                                       !- Temperature Capacity Multiplier
  15,                                     !- Humidity Capacity Multiplier
  ;                                       !- Carbon Dioxide Capacity Multiplier

OS:RunPeriod,
  {d4bbdcbf-cbd4-41ea-9b77-d853ebac2086}, !- Handle
  Run Period 1,                           !- Name
  1,                                      !- Begin Month
  1,                                      !- Begin Day of Month
  12,                                     !- End Month
  31,                                     !- End Day of Month
  ,                                       !- Use Weather File Holidays and Special Days
  ,                                       !- Use Weather File Daylight Saving Period
  ,                                       !- Apply Weekend Holiday Rule
  ,                                       !- Use Weather File Rain Indicators
  ,                                       !- Use Weather File Snow Indicators
  ;                                       !- Number of Times Runperiod to be Repeated

OS:YearDescription,
  {4c3e40c7-3b26-4b75-aeb2-3c47e1fcc868}, !- Handle
  2007,                                   !- Calendar Year
  ,                                       !- Day of Week for Start Day
  ;                                       !- Is Leap Year

OS:WeatherFile,
  {dc5b1879-a0b2-4cb4-8978-0f565c11a118}, !- Handle
  Miami Intl Ap,                          !- City
  FL,                                     !- State Province Region
  USA,                                    !- Country
  TMY3,                                   !- Data Source
  722020,                                 !- WMO Number
  25.82,                                  !- Latitude {deg}
  -80.3,                                  !- Longitude {deg}
  -5,                                     !- Time Zone {hr}
  11,                                     !- Elevation {m}
  file:../weather/USA_FL_Miami.Intl.AP.722020_TMY3.epw, !- Url
  7D992F19;                               !- Checksum

OS:AdditionalProperties,
  {4972ffad-d8dc-49e0-97fb-c7f9ac97f23b}, !- Handle
  {dc5b1879-a0b2-4cb4-8978-0f565c11a118}, !- Object Name
  EPWHeaderCity,                          !- Feature Name 1
  String,                                 !- Feature Data Type 1
  Miami Intl Ap,                          !- Feature Value 1
  EPWHeaderState,                         !- Feature Name 2
  String,                                 !- Feature Data Type 2
  FL,                                     !- Feature Value 2
  EPWHeaderCountry,                       !- Feature Name 3
  String,                                 !- Feature Data Type 3
  USA,                                    !- Feature Value 3
  EPWHeaderDataSource,                    !- Feature Name 4
  String,                                 !- Feature Data Type 4
  TMY3,                                   !- Feature Value 4
  EPWHeaderStation,                       !- Feature Name 5
  String,                                 !- Feature Data Type 5
  722020,                                 !- Feature Value 5
  EPWHeaderLatitude,                      !- Feature Name 6
  Double,                                 !- Feature Data Type 6
  25.82,                                  !- Feature Value 6
  EPWHeaderLongitude,                     !- Feature Name 7
  Double,                                 !- Feature Data Type 7
  -80.299999999999997,                    !- Feature Value 7
  EPWHeaderTimezone,                      !- Feature Name 8
  Double,                                 !- Feature Data Type 8
  -5,                                     !- Feature Value 8
  EPWHeaderAltitude,                      !- Feature Name 9
  Double,                                 !- Feature Data Type 9
  36.089238845144358,                     !- Feature Value 9
  EPWHeaderLocalPressure,                 !- Feature Name 10
  Double,                                 !- Feature Data Type 10
  0.99867279752375582,                    !- Feature Value 10
  EPWHeaderRecordsPerHour,                !- Feature Name 11
  Double,                                 !- Feature Data Type 11
  0,                                      !- Feature Value 11
  EPWDataAnnualAvgDrybulb,                !- Feature Name 12
  Double,                                 !- Feature Data Type 12
  76.112431506849646,                     !- Feature Value 12
  EPWDataAnnualMinDrybulb,                !- Feature Name 13
  Double,                                 !- Feature Data Type 13
  41,                                     !- Feature Value 13
  EPWDataAnnualMaxDrybulb,                !- Feature Name 14
  Double,                                 !- Feature Data Type 14
  96.079999999999998,                     !- Feature Value 14
  EPWDataCDD50F,                          !- Feature Name 15
  Double,                                 !- Feature Data Type 15
  9531.0375000000095,                     !- Feature Value 15
  EPWDataCDD65F,                          !- Feature Name 16
  Double,                                 !- Feature Data Type 16
  4195.6950000000024,                     !- Feature Value 16
  EPWDataHDD50F,                          !- Feature Name 17
  Double,                                 !- Feature Data Type 17
  0,                                      !- Feature Value 17
  EPWDataHDD65F,                          !- Feature Name 18
  Double,                                 !- Feature Data Type 18
  139.65749999999994,                     !- Feature Value 18
  EPWDataAnnualAvgWindspeed,              !- Feature Name 19
  Double,                                 !- Feature Data Type 19
  4.1177511415521071,                     !- Feature Value 19
  EPWDataMonthlyAvgDrybulbs,              !- Feature Name 20
  String,                                 !- Feature Data Type 20
  66.95193548387095&#4469.5634821428572&#4470.82532258064509&#4475.40050000000002&#4479.54733870967738&#4481.83024999999998&#4482.63032258064513&#4482.35137096774197&#4481.48900000000006&#4479.41935483870965&#4474.45850000000013&#4468.52959677419348, !- Feature Value 20
  EPWDataGroundMonthlyTemps,              !- Feature Name 21
  String,                                 !- Feature Data Type 21
  73.49949161266244&#4472.30037030421141&#4472.20434036952582&#4472.77338470116848&#4475.05778059628489&#4477.33153480622997&#4479.3027581871666&#4480.55147971773891&#4480.65756547050086&#4479.64194038682461&#4477.72098435943627&#4475.51697966748856, !- Feature Value 21
  EPWDataWSF,                             !- Feature Name 22
  Double,                                 !- Feature Data Type 22
  0.40999999999999998,                    !- Feature Value 22
  EPWDataMonthlyAvgDailyHighDrybulbs,     !- Feature Name 23
  String,                                 !- Feature Data Type 23
  74.53225806451614&#4477.66214285714287&#4477.27290322580646&#4481.72800000000001&#4486.04064516129033&#4486.98400000000001&#4490.42451612903224&#4488.4967741935484&#4487.90800000000002&#4485.89548387096775&#4480.03600000000002&#4475.40903225806453, !- Feature Value 23
  EPWDataMonthlyAvgDailyLowDrybulbs,      !- Feature Name 24
  String,                                 !- Feature Data Type 24
  59.80709677419355&#4461.73857142857143&#4464.17935483870968&#4469.69800000000001&#4474.1606451612903&#4476.73&#4476.30322580645162&#4477.12774193548387&#4475.84199999999998&#4474.00387096774193&#4467.946&#4461.816129032258054, !- Feature Value 24
  EPWDesignHeatingDrybulb,                !- Feature Name 25
  Double,                                 !- Feature Data Type 25
  51.980000000000004,                     !- Feature Value 25
  EPWDesignHeatingWindspeed,              !- Feature Name 26
  Double,                                 !- Feature Data Type 26
  3.7461538461538462,                     !- Feature Value 26
  EPWDesignCoolingDrybulb,                !- Feature Name 27
  Double,                                 !- Feature Data Type 27
  89.960000000000008,                     !- Feature Value 27
  EPWDesignCoolingWetbulb,                !- Feature Name 28
  Double,                                 !- Feature Data Type 28
  77.005134139097905,                     !- Feature Value 28
  EPWDesignCoolingHumidityRatio,          !- Feature Name 29
  Double,                                 !- Feature Data Type 29
  0.016947724336000048,                   !- Feature Value 29
  EPWDesignCoolingWindspeed,              !- Feature Name 30
  Double,                                 !- Feature Data Type 30
  4.5874999999999959,                     !- Feature Value 30
  EPWDesignDailyTemperatureRange,         !- Feature Name 31
  Double,                                 !- Feature Data Type 31
  11.369032258064536,                     !- Feature Value 31
  EPWDesignDehumidDrybulb,                !- Feature Name 32
  Double,                                 !- Feature Data Type 32
  81.970769230769221,                     !- Feature Value 32
  EPWDesignDehumidHumidityRatio,          !- Feature Name 33
  Double,                                 !- Feature Data Type 33
  0.019380342324718424,                   !- Feature Value 33
  EPWDesignCoolingDirectNormal,           !- Feature Name 34
  Double,                                 !- Feature Data Type 34
  817,                                    !- Feature Value 34
  EPWDesignCoolingDiffuseHorizontal,      !- Feature Name 35
  Double,                                 !- Feature Data Type 35
  229;                                    !- Feature Value 35

OS:Site,
  {48eb4d33-c7ad-477f-ab17-4c61b0203fe9}, !- Handle
  Miami Intl Ap_FL_USA,                   !- Name
  25.82,                                  !- Latitude {deg}
  -80.3,                                  !- Longitude {deg}
  -5,                                     !- Time Zone {hr}
  11,                                     !- Elevation {m}
  Suburbs;                                !- Terrain

OS:ClimateZones,
  {919041ae-15cb-4234-8f14-c937387cfc89}, !- Handle
  ,                                       !- Active Institution
  ,                                       !- Active Year
  ,                                       !- Climate Zone Institution Name 1
  ,                                       !- Climate Zone Document Name 1
  ,                                       !- Climate Zone Document Year 1
  ,                                       !- Climate Zone Value 1
  Building America,                       !- Climate Zone Institution Name 2
  ,                                       !- Climate Zone Document Name 2
  0,                                      !- Climate Zone Document Year 2
  Hot-Humid;                              !- Climate Zone Value 2

OS:Site:WaterMainsTemperature,
  {82369e14-172e-4c6a-8413-2b7efb499477}, !- Handle
  Correlation,                            !- Calculation Method
  ,                                       !- Temperature Schedule Name
  24.5069063926942,                       !- Annual Average Outdoor Air Temperature {C}
  8.71021505376343;                       !- Maximum Difference In Monthly Average Outdoor Air Temperatures {deltaC}

OS:RunPeriodControl:DaylightSavingTime,
  {a301a51e-5935-4441-8f53-8194838c3d79}, !- Handle
  4/7,                                    !- Start Date
  10/26;                                  !- End Date

OS:Site:GroundTemperature:Deep,
  {f51a2a2e-d9ed-444b-b88d-d3b7b01284ed}, !- Handle
  24.5069063926942,                       !- January Deep Ground Temperature {C}
  24.5069063926942,                       !- February Deep Ground Temperature {C}
  24.5069063926942,                       !- March Deep Ground Temperature {C}
  24.5069063926942,                       !- April Deep Ground Temperature {C}
  24.5069063926942,                       !- May Deep Ground Temperature {C}
  24.5069063926942,                       !- June Deep Ground Temperature {C}
  24.5069063926942,                       !- July Deep Ground Temperature {C}
  24.5069063926942,                       !- August Deep Ground Temperature {C}
  24.5069063926942,                       !- September Deep Ground Temperature {C}
  24.5069063926942,                       !- October Deep Ground Temperature {C}
  24.5069063926942,                       !- November Deep Ground Temperature {C}
  24.5069063926942;                       !- December Deep Ground Temperature {C}

OS:ThermalZone,
  {80998833-8424-42a3-9ef2-0b0451307e89}, !- Handle
  living zone,                            !- Name
  ,                                       !- Multiplier
  ,                                       !- Ceiling Height {m}
  ,                                       !- Volume {m3}
  ,                                       !- Floor Area {m2}
  ,                                       !- Zone Inside Convection Algorithm
  ,                                       !- Zone Outside Convection Algorithm
  ,                                       !- Zone Conditioning Equipment List Name
  {b240ec6b-a9d6-44cc-bd0f-e630093599f1}, !- Zone Air Inlet Port List
  {16f62b6b-0118-4855-b717-afe0544aa522}, !- Zone Air Exhaust Port List
  {6146ba2b-8fdb-44d1-9f00-3a3616298377}, !- Zone Air Node Name
  {173f8ca2-aeac-40fb-92d1-2220b0234596}, !- Zone Return Air Port List
  ,                                       !- Primary Daylighting Control Name
  ,                                       !- Fraction of Zone Controlled by Primary Daylighting Control
  ,                                       !- Secondary Daylighting Control Name
  ,                                       !- Fraction of Zone Controlled by Secondary Daylighting Control
  ,                                       !- Illuminance Map Name
  ,                                       !- Group Rendering Name
  ,                                       !- Thermostat Name
  No,                                     !- Use Ideal Air Loads
  {5bdef01b-8989-42bf-85a7-2351ac8fac4e}; !- Humidistat Name

OS:Node,
  {4113cf61-b145-4e06-acd4-9af981cf0353}, !- Handle
  Node 1,                                 !- Name
  {6146ba2b-8fdb-44d1-9f00-3a3616298377}, !- Inlet Port
  ;                                       !- Outlet Port

OS:Connection,
  {6146ba2b-8fdb-44d1-9f00-3a3616298377}, !- Handle
  {b0c2005b-2987-4145-8c5a-403f5ff16706}, !- Name
  {80998833-8424-42a3-9ef2-0b0451307e89}, !- Source Object
  11,                                     !- Outlet Port
  {4113cf61-b145-4e06-acd4-9af981cf0353}, !- Target Object
  2;                                      !- Inlet Port

OS:PortList,
  {b240ec6b-a9d6-44cc-bd0f-e630093599f1}, !- Handle
  {c7724a34-f80e-403c-9eef-dbf6dc245c3f}, !- Name
  {80998833-8424-42a3-9ef2-0b0451307e89}, !- HVAC Component
  {bfb89e37-d349-4204-98f9-b107dc37a749}; !- Port 1

OS:PortList,
  {16f62b6b-0118-4855-b717-afe0544aa522}, !- Handle
  {40710ad2-a9c4-4193-b028-ba6b3221a696}, !- Name
  {80998833-8424-42a3-9ef2-0b0451307e89}, !- HVAC Component
  {1caa0509-8b9c-4afc-9c00-3b1b3e2ef566}; !- Port 1

OS:PortList,
  {173f8ca2-aeac-40fb-92d1-2220b0234596}, !- Handle
  {2115b432-2790-43ea-887c-fb37a8ed2dd3}, !- Name
  {80998833-8424-42a3-9ef2-0b0451307e89}; !- HVAC Component

OS:Sizing:Zone,
  {55dd10a6-6c92-4a8c-9a0f-9009a10ea75b}, !- Handle
  {80998833-8424-42a3-9ef2-0b0451307e89}, !- Zone or ZoneList Name
  SupplyAirTemperature,                   !- Zone Cooling Design Supply Air Temperature Input Method
  14,                                     !- Zone Cooling Design Supply Air Temperature {C}
  11.11,                                  !- Zone Cooling Design Supply Air Temperature Difference {deltaC}
  SupplyAirTemperature,                   !- Zone Heating Design Supply Air Temperature Input Method
  40,                                     !- Zone Heating Design Supply Air Temperature {C}
  11.11,                                  !- Zone Heating Design Supply Air Temperature Difference {deltaC}
  0.0085,                                 !- Zone Cooling Design Supply Air Humidity Ratio {kg-H2O/kg-air}
  0.008,                                  !- Zone Heating Design Supply Air Humidity Ratio {kg-H2O/kg-air}
  ,                                       !- Zone Heating Sizing Factor
  ,                                       !- Zone Cooling Sizing Factor
  DesignDay,                              !- Cooling Design Air Flow Method
  ,                                       !- Cooling Design Air Flow Rate {m3/s}
  ,                                       !- Cooling Minimum Air Flow per Zone Floor Area {m3/s-m2}
  ,                                       !- Cooling Minimum Air Flow {m3/s}
  ,                                       !- Cooling Minimum Air Flow Fraction
  DesignDay,                              !- Heating Design Air Flow Method
  ,                                       !- Heating Design Air Flow Rate {m3/s}
  ,                                       !- Heating Maximum Air Flow per Zone Floor Area {m3/s-m2}
  ,                                       !- Heating Maximum Air Flow {m3/s}
  ,                                       !- Heating Maximum Air Flow Fraction
  ,                                       !- Design Zone Air Distribution Effectiveness in Cooling Mode
  ,                                       !- Design Zone Air Distribution Effectiveness in Heating Mode
  No,                                     !- Account for Dedicated Outdoor Air System
  NeutralSupplyAir,                       !- Dedicated Outdoor Air System Control Strategy
  autosize,                               !- Dedicated Outdoor Air Low Setpoint Temperature for Design {C}
  autosize;                               !- Dedicated Outdoor Air High Setpoint Temperature for Design {C}

OS:ZoneHVAC:EquipmentList,
  {b66c6740-0928-4dcc-982b-dd49c724e88d}, !- Handle
  Zone HVAC Equipment List 1,             !- Name
  {80998833-8424-42a3-9ef2-0b0451307e89}, !- Thermal Zone
  SequentialLoad,                         !- Load Distribution Scheme
  {c7b5d33a-1412-4e2e-87fa-487a4e4f1988}, !- Zone Equipment 1
  1,                                      !- Zone Equipment Cooling Sequence 1
  1,                                      !- Zone Equipment Heating or No-Load Sequence 1
  ,                                       !- Zone Equipment Sequential Cooling Fraction Schedule Name 1
  ;                                       !- Zone Equipment Sequential Heating Fraction Schedule Name 1

OS:ThermalZone,
  {4c9b4981-4d12-47e2-97f5-6eb98681e898}, !- Handle
  garage zone,                            !- Name
  ,                                       !- Multiplier
  ,                                       !- Ceiling Height {m}
  ,                                       !- Volume {m3}
  ,                                       !- Floor Area {m2}
  ,                                       !- Zone Inside Convection Algorithm
  ,                                       !- Zone Outside Convection Algorithm
  ,                                       !- Zone Conditioning Equipment List Name
  {8e46eb67-43ce-4c59-8a9f-df208314c80c}, !- Zone Air Inlet Port List
  {0e869164-165a-481a-8312-3083a28e0507}, !- Zone Air Exhaust Port List
  {2f74affa-a456-4c38-8b12-768ea6b580e5}, !- Zone Air Node Name
  {a7252495-8804-498e-9203-2742b9af76e8}, !- Zone Return Air Port List
  ,                                       !- Primary Daylighting Control Name
  ,                                       !- Fraction of Zone Controlled by Primary Daylighting Control
  ,                                       !- Secondary Daylighting Control Name
  ,                                       !- Fraction of Zone Controlled by Secondary Daylighting Control
  ,                                       !- Illuminance Map Name
  ,                                       !- Group Rendering Name
  ,                                       !- Thermostat Name
  No;                                     !- Use Ideal Air Loads

OS:Node,
  {fb285a08-f6ef-4b54-a47d-dd59605ad953}, !- Handle
  Node 2,                                 !- Name
  {2f74affa-a456-4c38-8b12-768ea6b580e5}, !- Inlet Port
  ;                                       !- Outlet Port

OS:Connection,
  {2f74affa-a456-4c38-8b12-768ea6b580e5}, !- Handle
  {055bbeb9-c130-41cf-9331-897df7ca526c}, !- Name
  {4c9b4981-4d12-47e2-97f5-6eb98681e898}, !- Source Object
  11,                                     !- Outlet Port
  {fb285a08-f6ef-4b54-a47d-dd59605ad953}, !- Target Object
  2;                                      !- Inlet Port

OS:PortList,
  {8e46eb67-43ce-4c59-8a9f-df208314c80c}, !- Handle
  {12d14276-6c3d-4a52-b308-e8d994bf3d31}, !- Name
  {4c9b4981-4d12-47e2-97f5-6eb98681e898}; !- HVAC Component

OS:PortList,
  {0e869164-165a-481a-8312-3083a28e0507}, !- Handle
  {10a40e5a-3af7-4baa-b873-093d4e265e72}, !- Name
  {4c9b4981-4d12-47e2-97f5-6eb98681e898}; !- HVAC Component

OS:PortList,
  {a7252495-8804-498e-9203-2742b9af76e8}, !- Handle
  {6614b5fc-1768-412d-bc68-6440382d6659}, !- Name
  {4c9b4981-4d12-47e2-97f5-6eb98681e898}; !- HVAC Component

OS:Sizing:Zone,
  {d14a7aa6-aa77-42af-a95e-29957e16e044}, !- Handle
  {4c9b4981-4d12-47e2-97f5-6eb98681e898}, !- Zone or ZoneList Name
  SupplyAirTemperature,                   !- Zone Cooling Design Supply Air Temperature Input Method
  14,                                     !- Zone Cooling Design Supply Air Temperature {C}
  11.11,                                  !- Zone Cooling Design Supply Air Temperature Difference {deltaC}
  SupplyAirTemperature,                   !- Zone Heating Design Supply Air Temperature Input Method
  40,                                     !- Zone Heating Design Supply Air Temperature {C}
  11.11,                                  !- Zone Heating Design Supply Air Temperature Difference {deltaC}
  0.0085,                                 !- Zone Cooling Design Supply Air Humidity Ratio {kg-H2O/kg-air}
  0.008,                                  !- Zone Heating Design Supply Air Humidity Ratio {kg-H2O/kg-air}
  ,                                       !- Zone Heating Sizing Factor
  ,                                       !- Zone Cooling Sizing Factor
  DesignDay,                              !- Cooling Design Air Flow Method
  ,                                       !- Cooling Design Air Flow Rate {m3/s}
  ,                                       !- Cooling Minimum Air Flow per Zone Floor Area {m3/s-m2}
  ,                                       !- Cooling Minimum Air Flow {m3/s}
  ,                                       !- Cooling Minimum Air Flow Fraction
  DesignDay,                              !- Heating Design Air Flow Method
  ,                                       !- Heating Design Air Flow Rate {m3/s}
  ,                                       !- Heating Maximum Air Flow per Zone Floor Area {m3/s-m2}
  ,                                       !- Heating Maximum Air Flow {m3/s}
  ,                                       !- Heating Maximum Air Flow Fraction
  ,                                       !- Design Zone Air Distribution Effectiveness in Cooling Mode
  ,                                       !- Design Zone Air Distribution Effectiveness in Heating Mode
  No,                                     !- Account for Dedicated Outdoor Air System
  NeutralSupplyAir,                       !- Dedicated Outdoor Air System Control Strategy
  autosize,                               !- Dedicated Outdoor Air Low Setpoint Temperature for Design {C}
  autosize;                               !- Dedicated Outdoor Air High Setpoint Temperature for Design {C}

OS:ZoneHVAC:EquipmentList,
  {1ac8392d-8d32-4480-ac65-22273f13aa21}, !- Handle
  Zone HVAC Equipment List 2,             !- Name
  {4c9b4981-4d12-47e2-97f5-6eb98681e898}; !- Thermal Zone

OS:Space,
  {e5c70709-729d-43aa-8230-aa4b51007aa4}, !- Handle
  garage space,                           !- Name
  {17eae1b0-5bdb-48e3-be44-01857b74a5f8}, !- Space Type Name
  ,                                       !- Default Construction Set Name
  ,                                       !- Default Schedule Set Name
  -0,                                     !- Direction of Relative North {deg}
  0,                                      !- X Origin {m}
  0,                                      !- Y Origin {m}
  0,                                      !- Z Origin {m}
  ,                                       !- Building Story Name
  {4c9b4981-4d12-47e2-97f5-6eb98681e898}; !- Thermal Zone Name

OS:Surface,
  {0b8e8390-60d3-4947-a394-ed071387d9de}, !- Handle
  Surface 1,                              !- Name
  Floor,                                  !- Surface Type
  {d429261b-a96c-474a-85f7-5bc5e6c387e0}, !- Construction Name
  {e5c70709-729d-43aa-8230-aa4b51007aa4}, !- Space Name
  Foundation,                             !- Outside Boundary Condition
  {c365d0bc-d340-455e-be87-904f4a3181b5}, !- Outside Boundary Condition Object
  NoSun,                                  !- Sun Exposure
  NoWind,                                 !- Wind Exposure
  ,                                       !- View Factor to Ground
  ,                                       !- Number of Vertices
  8.91701625975123, -3.048, 0,            !- X,Y,Z Vertex 1 {m}
  8.91701625975123, 3.048, 0,             !- X,Y,Z Vertex 2 {m}
  12.5746162597512, 3.048, 0,             !- X,Y,Z Vertex 3 {m}
  12.5746162597512, -3.048, 0;            !- X,Y,Z Vertex 4 {m}

OS:Surface,
  {54e2022d-3f56-4a02-8d97-755a35ec2018}, !- Handle
  Surface 2,                              !- Name
  Wall,                                   !- Surface Type
  {af23038f-552a-4cdc-861c-5a66a618eb58}, !- Construction Name
  {e5c70709-729d-43aa-8230-aa4b51007aa4}, !- Space Name
  Surface,                                !- Outside Boundary Condition
  {5d5aebe6-04b5-4b80-b7ab-167624f7ef04}, !- Outside Boundary Condition Object
  NoSun,                                  !- Sun Exposure
  NoWind,                                 !- Wind Exposure
  ,                                       !- View Factor to Ground
  ,                                       !- Number of Vertices
  8.91701625975123, 3.048, 2.4384,        !- X,Y,Z Vertex 1 {m}
  8.91701625975123, 3.048, 0,             !- X,Y,Z Vertex 2 {m}
  8.91701625975123, 0, 0,                 !- X,Y,Z Vertex 3 {m}
  8.91701625975123, 0, 2.4384;            !- X,Y,Z Vertex 4 {m}

OS:Surface,
  {9c90dad4-85e7-4ade-b9f8-1519154c90dc}, !- Handle
  Surface 3,                              !- Name
  Wall,                                   !- Surface Type
  {af23038f-552a-4cdc-861c-5a66a618eb58}, !- Construction Name
  {e5c70709-729d-43aa-8230-aa4b51007aa4}, !- Space Name
  Surface,                                !- Outside Boundary Condition
  {580c7f1a-0a48-4d66-814d-4f8fdbb3ddb6}, !- Outside Boundary Condition Object
  NoSun,                                  !- Sun Exposure
  NoWind,                                 !- Wind Exposure
  ,                                       !- View Factor to Ground
  ,                                       !- Number of Vertices
  12.5746162597512, 3.048, 2.4384,        !- X,Y,Z Vertex 1 {m}
  12.5746162597512, 3.048, 0,             !- X,Y,Z Vertex 2 {m}
  8.91701625975123, 3.048, 0,             !- X,Y,Z Vertex 3 {m}
  8.91701625975123, 3.048, 2.4384;        !- X,Y,Z Vertex 4 {m}

OS:Surface,
  {2ad9cc03-c97e-4cca-82b7-a564ef237168}, !- Handle
  Surface 4,                              !- Name
  Wall,                                   !- Surface Type
  {d96db06a-9bca-4395-a0dd-ee0c8ce06fc7}, !- Construction Name
  {e5c70709-729d-43aa-8230-aa4b51007aa4}, !- Space Name
  Outdoors,                               !- Outside Boundary Condition
  ,                                       !- Outside Boundary Condition Object
  SunExposed,                             !- Sun Exposure
  WindExposed,                            !- Wind Exposure
  ,                                       !- View Factor to Ground
  ,                                       !- Number of Vertices
  12.5746162597512, -3.048, 2.4384,       !- X,Y,Z Vertex 1 {m}
  12.5746162597512, -3.048, 0,            !- X,Y,Z Vertex 2 {m}
  12.5746162597512, 3.048, 0,             !- X,Y,Z Vertex 3 {m}
  12.5746162597512, 3.048, 2.4384;        !- X,Y,Z Vertex 4 {m}

OS:Surface,
  {b08c6495-c3e8-493a-b7ce-8954fa90bd30}, !- Handle
  Surface 5,                              !- Name
  Wall,                                   !- Surface Type
  {d96db06a-9bca-4395-a0dd-ee0c8ce06fc7}, !- Construction Name
  {e5c70709-729d-43aa-8230-aa4b51007aa4}, !- Space Name
  Outdoors,                               !- Outside Boundary Condition