!- NOTE: Auto-generated from /test/osw_files/SFD_2story_FB_UA_GRG_GSHP_ElecTanklessWH.osw

OS:Version,
  {a5b5f2a2-e99d-4497-bb98-43f2aff7ee96}, !- Handle
  2.8.0;                                  !- Version Identifier

OS:SimulationControl,
  {df4c0a60-1afd-4bd6-9b32-d9554bd15c94}, !- Handle
  ,                                       !- Do Zone Sizing Calculation
  ,                                       !- Do System Sizing Calculation
  ,                                       !- Do Plant Sizing Calculation
  No;                                     !- Run Simulation for Sizing Periods

OS:Timestep,
  {1cb6ad31-af5b-49e8-a920-0eae261b1751}, !- Handle
  6;                                      !- Number of Timesteps per Hour

OS:ShadowCalculation,
  {73d96e40-2251-4aea-8515-71cc3ffb026d}, !- Handle
  20,                                     !- Calculation Frequency
  200;                                    !- Maximum Figures in Shadow Overlap Calculations

OS:SurfaceConvectionAlgorithm:Outside,
  {efb4ba73-72f6-4f4e-9e81-385dbf274e1d}, !- Handle
  DOE-2;                                  !- Algorithm

OS:SurfaceConvectionAlgorithm:Inside,
  {6d56f040-6b19-4a2f-94d5-a83aa5b04b0b}, !- Handle
  TARP;                                   !- Algorithm

OS:ZoneCapacitanceMultiplier:ResearchSpecial,
  {36482208-be55-41be-b2a1-316e1c9204e6}, !- Handle
  ,                                       !- Temperature Capacity Multiplier
  15,                                     !- Humidity Capacity Multiplier
  ;                                       !- Carbon Dioxide Capacity Multiplier

OS:RunPeriod,
  {a112b967-6321-4413-978b-797acc62b748}, !- Handle
  Run Period 1,                           !- Name
  1,                                      !- Begin Month
  1,                                      !- Begin Day of Month
  12,                                     !- End Month
  31,                                     !- End Day of Month
  ,                                       !- Use Weather File Holidays and Special Days
  ,                                       !- Use Weather File Daylight Saving Period
  ,                                       !- Apply Weekend Holiday Rule
  ,                                       !- Use Weather File Rain Indicators
  ,                                       !- Use Weather File Snow Indicators
  ;                                       !- Number of Times Runperiod to be Repeated

OS:WeatherFile,
  {ee89f8c8-fe3a-4abb-910b-018d19476209}, !- Handle
  Denver Intl Ap,                         !- City
  CO,                                     !- State Province Region
  USA,                                    !- Country
  TMY3,                                   !- Data Source
  725650,                                 !- WMO Number
  39.83,                                  !- Latitude {deg}
  -104.65,                                !- Longitude {deg}
  -7,                                     !- Time Zone {hr}
  1650,                                   !- Elevation {m}
  file:../weather/USA_CO_Denver.Intl.AP.725650_TMY3.epw, !- Url
  E23378AA;                               !- Checksum

OS:AdditionalProperties,
  {b962d730-e0b9-46b0-80f6-6e0b630b0076}, !- Handle
  {ee89f8c8-fe3a-4abb-910b-018d19476209}, !- Object Name
  EPWHeaderCity,                          !- Feature Name 1
  String,                                 !- Feature Data Type 1
  Denver Intl Ap,                         !- Feature Value 1
  EPWHeaderState,                         !- Feature Name 2
  String,                                 !- Feature Data Type 2
  CO,                                     !- Feature Value 2
  EPWHeaderCountry,                       !- Feature Name 3
  String,                                 !- Feature Data Type 3
  USA,                                    !- Feature Value 3
  EPWHeaderDataSource,                    !- Feature Name 4
  String,                                 !- Feature Data Type 4
  TMY3,                                   !- Feature Value 4
  EPWHeaderStation,                       !- Feature Name 5
  String,                                 !- Feature Data Type 5
  725650,                                 !- Feature Value 5
  EPWHeaderLatitude,                      !- Feature Name 6
  Double,                                 !- Feature Data Type 6
  39.829999999999998,                     !- Feature Value 6
  EPWHeaderLongitude,                     !- Feature Name 7
  Double,                                 !- Feature Data Type 7
  -104.65000000000001,                    !- Feature Value 7
  EPWHeaderTimezone,                      !- Feature Name 8
  Double,                                 !- Feature Data Type 8
  -7,                                     !- Feature Value 8
  EPWHeaderAltitude,                      !- Feature Name 9
  Double,                                 !- Feature Data Type 9
  5413.3858267716532,                     !- Feature Value 9
  EPWHeaderLocalPressure,                 !- Feature Name 10
  Double,                                 !- Feature Data Type 10
  0.81937567683596546,                    !- Feature Value 10
  EPWHeaderRecordsPerHour,                !- Feature Name 11
  Double,                                 !- Feature Data Type 11
  0,                                      !- Feature Value 11
  EPWDataAnnualAvgDrybulb,                !- Feature Name 12
  Double,                                 !- Feature Data Type 12
  51.575616438356228,                     !- Feature Value 12
  EPWDataAnnualMinDrybulb,                !- Feature Name 13
  Double,                                 !- Feature Data Type 13
  -2.9200000000000017,                    !- Feature Value 13
  EPWDataAnnualMaxDrybulb,                !- Feature Name 14
  Double,                                 !- Feature Data Type 14
  104,                                    !- Feature Value 14
  EPWDataCDD50F,                          !- Feature Name 15
  Double,                                 !- Feature Data Type 15
  3072.2925000000005,                     !- Feature Value 15
  EPWDataCDD65F,                          !- Feature Name 16
  Double,                                 !- Feature Data Type 16
  883.62000000000035,                     !- Feature Value 16
  EPWDataHDD50F,                          !- Feature Name 17
  Double,                                 !- Feature Data Type 17
  2497.1925000000001,                     !- Feature Value 17
  EPWDataHDD65F,                          !- Feature Name 18
  Double,                                 !- Feature Data Type 18
  5783.5200000000013,                     !- Feature Value 18
  EPWDataAnnualAvgWindspeed,              !- Feature Name 19
  Double,                                 !- Feature Data Type 19
  3.9165296803649667,                     !- Feature Value 19
  EPWDataMonthlyAvgDrybulbs,              !- Feature Name 20
  String,                                 !- Feature Data Type 20
  33.4191935483871&#4431.90142857142857&#4443.02620967741937&#4442.48624999999999&#4459.877741935483854&#4473.57574999999997&#4472.07975806451608&#4472.70008064516134&#4466.49200000000006&#4450.079112903225806&#4437.218250000000005&#4434.582177419354835, !- Feature Value 20
  EPWDataGroundMonthlyTemps,              !- Feature Name 21
  String,                                 !- Feature Data Type 21
  44.08306285945173&#4440.89570904991865&#4440.64045432632048&#4442.153016571250646&#4448.225111118704206&#4454.268919273837525&#4459.508577937551024&#4462.82777283423508&#4463.10975667174995&#4460.41014950381947&#4455.304105212311526&#4449.445696474514364, !- Feature Value 21
  EPWDataWSF,                             !- Feature Name 22
  Double,                                 !- Feature Data Type 22
  0.58999999999999997,                    !- Feature Value 22
  EPWDataMonthlyAvgDailyHighDrybulbs,     !- Feature Name 23
  String,                                 !- Feature Data Type 23
  47.41032258064516&#4446.58642857142857&#4455.15032258064517&#4453.708&#4472.80193548387098&#4488.67600000000002&#4486.1858064516129&#4485.87225806451613&#4482.082&#4463.18064516129033&#4448.73400000000001&#4448.87935483870968, !- Feature Value 23
  EPWDataMonthlyAvgDailyLowDrybulbs,      !- Feature Name 24
  String,                                 !- Feature Data Type 24
  19.347741935483874&#4419.856428571428573&#4430.316129032258065&#4431.112&#4447.41612903225806&#4457.901999999999994&#4459.063870967741934&#4460.956774193548384&#4452.352000000000004&#4438.41612903225806&#4427.002000000000002&#4423.02903225806451, !- Feature Value 24
  EPWDesignHeatingDrybulb,                !- Feature Name 25
  Double,                                 !- Feature Data Type 25
  12.02,                                  !- Feature Value 25
  EPWDesignHeatingWindspeed,              !- Feature Name 26
  Double,                                 !- Feature Data Type 26
  2.8062500000000004,                     !- Feature Value 26
  EPWDesignCoolingDrybulb,                !- Feature Name 27
  Double,                                 !- Feature Data Type 27
  91.939999999999998,                     !- Feature Value 27
  EPWDesignCoolingWetbulb,                !- Feature Name 28
  Double,                                 !- Feature Data Type 28
  59.95131430195849,                      !- Feature Value 28
  EPWDesignCoolingHumidityRatio,          !- Feature Name 29
  Double,                                 !- Feature Data Type 29
  0.0059161086834698092,                  !- Feature Value 29
  EPWDesignCoolingWindspeed,              !- Feature Name 30
  Double,                                 !- Feature Data Type 30
  3.7999999999999989,                     !- Feature Value 30
  EPWDesignDailyTemperatureRange,         !- Feature Name 31
  Double,                                 !- Feature Data Type 31
  24.915483870967748,                     !- Feature Value 31
  EPWDesignDehumidDrybulb,                !- Feature Name 32
  Double,                                 !- Feature Data Type 32
  67.996785714285721,                     !- Feature Value 32
  EPWDesignDehumidHumidityRatio,          !- Feature Name 33
  Double,                                 !- Feature Data Type 33
  0.012133744170488724,                   !- Feature Value 33
  EPWDesignCoolingDirectNormal,           !- Feature Name 34
  Double,                                 !- Feature Data Type 34
  985,                                    !- Feature Value 34
  EPWDesignCoolingDiffuseHorizontal,      !- Feature Name 35
  Double,                                 !- Feature Data Type 35
  84;                                     !- Feature Value 35

OS:YearDescription,
  {5fbc37ce-237a-40d0-8a7b-651d31e3836c}, !- Handle
  ,                                       !- Calendar Year
  Monday;                                 !- Day of Week for Start Day

OS:Site,
  {f3b66cc7-f791-4446-84ac-49e54a8a4b52}, !- Handle
  Denver Intl Ap_CO_USA,                  !- Name
  39.83,                                  !- Latitude {deg}
  -104.65,                                !- Longitude {deg}
  -7,                                     !- Time Zone {hr}
  1650,                                   !- Elevation {m}
  Suburbs;                                !- Terrain

OS:ClimateZones,
  {35b66607-dc00-42a4-b202-c86b9ac8faec}, !- Handle
  ,                                       !- Active Institution
  ,                                       !- Active Year
  ,                                       !- Climate Zone Institution Name 1
  ,                                       !- Climate Zone Document Name 1
  ,                                       !- Climate Zone Document Year 1
  ,                                       !- Climate Zone Value 1
  Building America,                       !- Climate Zone Institution Name 2
  ,                                       !- Climate Zone Document Name 2
  0,                                      !- Climate Zone Document Year 2
  Cold;                                   !- Climate Zone Value 2

OS:Site:WaterMainsTemperature,
  {7e6b39a3-f247-46e8-9623-e6c73367f19b}, !- Handle
  Correlation,                            !- Calculation Method
  ,                                       !- Temperature Schedule Name
  10.8753424657535,                       !- Annual Average Outdoor Air Temperature {C}
  23.1524007936508;                       !- Maximum Difference In Monthly Average Outdoor Air Temperatures {deltaC}

OS:RunPeriodControl:DaylightSavingTime,
  {58453b3b-ac8f-4415-8032-21670d3a603f}, !- Handle
  4/7,                                    !- Start Date
  10/26;                                  !- End Date

OS:Site:GroundTemperature:Deep,
  {4b8fadf3-73a8-40f8-ad9b-2beb4dac5c0e}, !- Handle
  10.8753424657535,                       !- January Deep Ground Temperature {C}
  10.8753424657535,                       !- February Deep Ground Temperature {C}
  10.8753424657535,                       !- March Deep Ground Temperature {C}
  10.8753424657535,                       !- April Deep Ground Temperature {C}
  10.8753424657535,                       !- May Deep Ground Temperature {C}
  10.8753424657535,                       !- June Deep Ground Temperature {C}
  10.8753424657535,                       !- July Deep Ground Temperature {C}
  10.8753424657535,                       !- August Deep Ground Temperature {C}
  10.8753424657535,                       !- September Deep Ground Temperature {C}
  10.8753424657535,                       !- October Deep Ground Temperature {C}
  10.8753424657535,                       !- November Deep Ground Temperature {C}
  10.8753424657535;                       !- December Deep Ground Temperature {C}

OS:ThermalZone,
  {04a56c3f-f1ab-45ff-b412-fb64ec44cb4e}, !- Handle
  living zone,                            !- Name
  ,                                       !- Multiplier
  ,                                       !- Ceiling Height {m}
  ,                                       !- Volume {m3}
  ,                                       !- Floor Area {m2}
  ,                                       !- Zone Inside Convection Algorithm
  ,                                       !- Zone Outside Convection Algorithm
  ,                                       !- Zone Conditioning Equipment List Name
  {65403c27-6847-458a-aff4-f3286a216583}, !- Zone Air Inlet Port List
  {729cce4b-310d-427d-b405-4a33211a5929}, !- Zone Air Exhaust Port List
  {acc3f14c-7247-41f9-b6c0-7bd98dc3f0f5}, !- Zone Air Node Name
  {673f8e18-3b93-49db-b9be-3bbf123aca0b}, !- Zone Return Air Port List
  ,                                       !- Primary Daylighting Control Name
  ,                                       !- Fraction of Zone Controlled by Primary Daylighting Control
  ,                                       !- Secondary Daylighting Control Name
  ,                                       !- Fraction of Zone Controlled by Secondary Daylighting Control
  ,                                       !- Illuminance Map Name
  ,                                       !- Group Rendering Name
  {37a2f839-caf1-4c24-a19c-2fe6e45e3696}, !- Thermostat Name
  No;                                     !- Use Ideal Air Loads

OS:Node,
  {ec5cb344-da25-435e-8fd2-2493f5f4a96a}, !- Handle
  Node 1,                                 !- Name
  {acc3f14c-7247-41f9-b6c0-7bd98dc3f0f5}, !- Inlet Port
  ;                                       !- Outlet Port

OS:Connection,
  {acc3f14c-7247-41f9-b6c0-7bd98dc3f0f5}, !- Handle
  {9abfe3f4-9582-40a6-8ae2-6cbc005e918f}, !- Name
  {04a56c3f-f1ab-45ff-b412-fb64ec44cb4e}, !- Source Object
  11,                                     !- Outlet Port
  {ec5cb344-da25-435e-8fd2-2493f5f4a96a}, !- Target Object
  2;                                      !- Inlet Port

OS:PortList,
  {65403c27-6847-458a-aff4-f3286a216583}, !- Handle
  {537361c1-6efd-4f89-90c9-e78d2b48177d}, !- Name
  {04a56c3f-f1ab-45ff-b412-fb64ec44cb4e}, !- HVAC Component
  {9537744f-e5df-4995-9be7-592334bff727}, !- Port 1
  {dc937fc0-4087-47b7-a1bd-f3a5875bff1f}; !- Port 2

OS:PortList,
  {729cce4b-310d-427d-b405-4a33211a5929}, !- Handle
  {d20d4d62-9619-4869-87cc-cb6d5692062b}, !- Name
  {04a56c3f-f1ab-45ff-b412-fb64ec44cb4e}; !- HVAC Component

OS:PortList,
  {673f8e18-3b93-49db-b9be-3bbf123aca0b}, !- Handle
  {a9af5e00-8a70-44d5-8628-8eef6aae6e97}, !- Name
  {04a56c3f-f1ab-45ff-b412-fb64ec44cb4e}, !- HVAC Component
  {1c4ca252-0ccd-4651-8428-1512fc2c895c}, !- Port 1
  {54c0d145-e413-4a3f-a2f5-050aab122a12}; !- Port 2

OS:Sizing:Zone,
  {5a627347-12b7-493f-b4f1-e08e81e653e9}, !- Handle
  {04a56c3f-f1ab-45ff-b412-fb64ec44cb4e}, !- Zone or ZoneList Name
  SupplyAirTemperature,                   !- Zone Cooling Design Supply Air Temperature Input Method
  14,                                     !- Zone Cooling Design Supply Air Temperature {C}
  11.11,                                  !- Zone Cooling Design Supply Air Temperature Difference {deltaC}
  SupplyAirTemperature,                   !- Zone Heating Design Supply Air Temperature Input Method
  40,                                     !- Zone Heating Design Supply Air Temperature {C}
  11.11,                                  !- Zone Heating Design Supply Air Temperature Difference {deltaC}
  0.0085,                                 !- Zone Cooling Design Supply Air Humidity Ratio {kg-H2O/kg-air}
  0.008,                                  !- Zone Heating Design Supply Air Humidity Ratio {kg-H2O/kg-air}
  ,                                       !- Zone Heating Sizing Factor
  ,                                       !- Zone Cooling Sizing Factor
  DesignDay,                              !- Cooling Design Air Flow Method
  ,                                       !- Cooling Design Air Flow Rate {m3/s}
  ,                                       !- Cooling Minimum Air Flow per Zone Floor Area {m3/s-m2}
  ,                                       !- Cooling Minimum Air Flow {m3/s}
  ,                                       !- Cooling Minimum Air Flow Fraction
  DesignDay,                              !- Heating Design Air Flow Method
  ,                                       !- Heating Design Air Flow Rate {m3/s}
  ,                                       !- Heating Maximum Air Flow per Zone Floor Area {m3/s-m2}
  ,                                       !- Heating Maximum Air Flow {m3/s}
  ,                                       !- Heating Maximum Air Flow Fraction
  ,                                       !- Design Zone Air Distribution Effectiveness in Cooling Mode
  ,                                       !- Design Zone Air Distribution Effectiveness in Heating Mode
  No,                                     !- Account for Dedicated Outdoor Air System
  NeutralSupplyAir,                       !- Dedicated Outdoor Air System Control Strategy
  autosize,                               !- Dedicated Outdoor Air Low Setpoint Temperature for Design {C}
  autosize;                               !- Dedicated Outdoor Air High Setpoint Temperature for Design {C}

OS:ZoneHVAC:EquipmentList,
  {07371c51-b9df-47b7-b124-4aa76e04424b}, !- Handle
  Zone HVAC Equipment List 1,             !- Name
  {04a56c3f-f1ab-45ff-b412-fb64ec44cb4e}, !- Thermal Zone
  SequentialLoad,                         !- Load Distribution Scheme
  {589f4459-825f-4eac-ae37-667e4cbe13a3}, !- Zone Equipment 1
  1,                                      !- Zone Equipment Cooling Sequence 1
  1,                                      !- Zone Equipment Heating or No-Load Sequence 1
  ,                                       !- Zone Equipment Sequential Cooling Fraction 1
  ,                                       !- Zone Equipment Sequential Heating Fraction 1
  {e11f253b-f8d9-49fe-97f3-b3c9c3d18a1a}, !- Zone Equipment 2
  2,                                      !- Zone Equipment Cooling Sequence 2
  2,                                      !- Zone Equipment Heating or No-Load Sequence 2
  ,                                       !- Zone Equipment Sequential Cooling Fraction 2
  ;                                       !- Zone Equipment Sequential Heating Fraction 2

OS:ThermalZone,
  {d605e63a-6b45-4e64-82db-d0c584c507fa}, !- Handle
  garage zone,                            !- Name
  ,                                       !- Multiplier
  ,                                       !- Ceiling Height {m}
  ,                                       !- Volume {m3}
  ,                                       !- Floor Area {m2}
  ,                                       !- Zone Inside Convection Algorithm
  ,                                       !- Zone Outside Convection Algorithm
  ,                                       !- Zone Conditioning Equipment List Name
  {0e53fff6-ee06-4faa-9c7b-fd2468edc6d9}, !- Zone Air Inlet Port List
  {8e3ba903-d805-4904-93ce-fb600ae14bc9}, !- Zone Air Exhaust Port List
  {96a35ccd-fef5-4ff0-8c73-32ddf794ab49}, !- Zone Air Node Name
  {f1ce5bcf-c855-4e4f-ae57-aa8f07db5393}, !- Zone Return Air Port List
  ,                                       !- Primary Daylighting Control Name
  ,                                       !- Fraction of Zone Controlled by Primary Daylighting Control
  ,                                       !- Secondary Daylighting Control Name
  ,                                       !- Fraction of Zone Controlled by Secondary Daylighting Control
  ,                                       !- Illuminance Map Name
  ,                                       !- Group Rendering Name
  ,                                       !- Thermostat Name
  No;                                     !- Use Ideal Air Loads

OS:Node,
  {1231bfe0-b6ca-4da5-a142-58aef8e0c086}, !- Handle
  Node 2,                                 !- Name
  {96a35ccd-fef5-4ff0-8c73-32ddf794ab49}, !- Inlet Port
  ;                                       !- Outlet Port

OS:Connection,
  {96a35ccd-fef5-4ff0-8c73-32ddf794ab49}, !- Handle
  {5df99845-673a-4f9e-bd31-10e6d94ac1f4}, !- Name
  {d605e63a-6b45-4e64-82db-d0c584c507fa}, !- Source Object
  11,                                     !- Outlet Port
  {1231bfe0-b6ca-4da5-a142-58aef8e0c086}, !- Target Object
  2;                                      !- Inlet Port

OS:PortList,
  {0e53fff6-ee06-4faa-9c7b-fd2468edc6d9}, !- Handle
  {8406f96c-fa7a-4d96-878e-4d6ffefb9610}, !- Name
  {d605e63a-6b45-4e64-82db-d0c584c507fa}; !- HVAC Component

OS:PortList,
  {8e3ba903-d805-4904-93ce-fb600ae14bc9}, !- Handle
  {56e58c63-9eb0-4f6a-92de-589ec06cfd6e}, !- Name
  {d605e63a-6b45-4e64-82db-d0c584c507fa}; !- HVAC Component

OS:PortList,
  {f1ce5bcf-c855-4e4f-ae57-aa8f07db5393}, !- Handle
  {a26655cd-f38a-4f8d-87fa-4ce618b1e366}, !- Name
  {d605e63a-6b45-4e64-82db-d0c584c507fa}; !- HVAC Component

OS:Sizing:Zone,
  {e2743391-e11e-4e74-9158-2b35469dbb45}, !- Handle
  {d605e63a-6b45-4e64-82db-d0c584c507fa}, !- Zone or ZoneList Name
  SupplyAirTemperature,                   !- Zone Cooling Design Supply Air Temperature Input Method
  14,                                     !- Zone Cooling Design Supply Air Temperature {C}
  11.11,                                  !- Zone Cooling Design Supply Air Temperature Difference {deltaC}
  SupplyAirTemperature,                   !- Zone Heating Design Supply Air Temperature Input Method
  40,                                     !- Zone Heating Design Supply Air Temperature {C}
  11.11,                                  !- Zone Heating Design Supply Air Temperature Difference {deltaC}
  0.0085,                                 !- Zone Cooling Design Supply Air Humidity Ratio {kg-H2O/kg-air}
  0.008,                                  !- Zone Heating Design Supply Air Humidity Ratio {kg-H2O/kg-air}
  ,                                       !- Zone Heating Sizing Factor
  ,                                       !- Zone Cooling Sizing Factor
  DesignDay,                              !- Cooling Design Air Flow Method
  ,                                       !- Cooling Design Air Flow Rate {m3/s}
  ,                                       !- Cooling Minimum Air Flow per Zone Floor Area {m3/s-m2}
  ,                                       !- Cooling Minimum Air Flow {m3/s}
  ,                                       !- Cooling Minimum Air Flow Fraction
  DesignDay,                              !- Heating Design Air Flow Method
  ,                                       !- Heating Design Air Flow Rate {m3/s}
  ,                                       !- Heating Maximum Air Flow per Zone Floor Area {m3/s-m2}
  ,                                       !- Heating Maximum Air Flow {m3/s}
  ,                                       !- Heating Maximum Air Flow Fraction
  ,                                       !- Design Zone Air Distribution Effectiveness in Cooling Mode
  ,                                       !- Design Zone Air Distribution Effectiveness in Heating Mode
  No,                                     !- Account for Dedicated Outdoor Air System
  NeutralSupplyAir,                       !- Dedicated Outdoor Air System Control Strategy
  autosize,                               !- Dedicated Outdoor Air Low Setpoint Temperature for Design {C}
  autosize;                               !- Dedicated Outdoor Air High Setpoint Temperature for Design {C}

OS:ZoneHVAC:EquipmentList,
  {9efcec6e-95fd-4740-af1d-fc5050f10ec5}, !- Handle
  Zone HVAC Equipment List 2,             !- Name
  {d605e63a-6b45-4e64-82db-d0c584c507fa}; !- Thermal Zone

OS:Space,
  {2d5118e8-77a1-4b01-bb2b-593fd479501f}, !- Handle
  garage space,                           !- Name
  {49b73c0c-74e4-42ee-b5c8-a608c9aad436}, !- Space Type Name
  ,                                       !- Default Construction Set Name
  ,                                       !- Default Schedule Set Name
  -0,                                     !- Direction of Relative North {deg}
  0,                                      !- X Origin {m}
  0,                                      !- Y Origin {m}
  0,                                      !- Z Origin {m}
  ,                                       !- Building Story Name
  {d605e63a-6b45-4e64-82db-d0c584c507fa}; !- Thermal Zone Name

OS:Surface,
  {bf8144c5-7c38-43b2-9b04-a17532b64b1b}, !- Handle
  Surface 1,                              !- Name
  Floor,                                  !- Surface Type
  {3d5987cd-0720-4467-8748-835b6463ca96}, !- Construction Name
  {2d5118e8-77a1-4b01-bb2b-593fd479501f}, !- Space Name
  Foundation,                             !- Outside Boundary Condition
  {74edd506-5b30-4ca4-a342-3a5e924c07d1}, !- Outside Boundary Condition Object
  NoSun,                                  !- Sun Exposure
  NoWind,                                 !- Wind Exposure
  ,                                       !- View Factor to Ground
  ,                                       !- Number of Vertices
  12.4316830995045, -3.6576, 0,           !- X,Y,Z Vertex 1 {m}
  12.4316830995045, 3.6576, 0,            !- X,Y,Z Vertex 2 {m}
  16.0892830995045, 3.6576, 0,            !- X,Y,Z Vertex 3 {m}
  16.0892830995045, -3.6576, 0;           !- X,Y,Z Vertex 4 {m}

OS:Surface,
  {61f437e5-18e1-4ba2-a22a-fe171a14e370}, !- Handle
  Surface 2,                              !- Name
  Wall,                                   !- Surface Type
  {ab06c8e2-d421-49bd-b9e3-afa708c3b4ff}, !- Construction Name
  {2d5118e8-77a1-4b01-bb2b-593fd479501f}, !- Space Name
  Surface,                                !- Outside Boundary Condition
  {e433e267-d607-4a3a-a759-d2cda2f0eb7a}, !- Outside Boundary Condition Object
  NoSun,                                  !- Sun Exposure
  NoWind,                                 !- Wind Exposure
  ,                                       !- View Factor to Ground
  ,                                       !- Number of Vertices
  12.4316830995045, 3.6576, 2.4384,       !- X,Y,Z Vertex 1 {m}
  12.4316830995045, 3.6576, 0,            !- X,Y,Z Vertex 2 {m}
  12.4316830995045, 0, 0,                 !- X,Y,Z Vertex 3 {m}
  12.4316830995045, 0, 2.4384;            !- X,Y,Z Vertex 4 {m}

OS:Surface,
  {a3368b3b-0052-4c83-8a1d-aeb22c747bde}, !- Handle
  Surface 3,                              !- Name
  Wall,                                   !- Surface Type
  {ab06c8e2-d421-49bd-b9e3-afa708c3b4ff}, !- Construction Name
  {2d5118e8-77a1-4b01-bb2b-593fd479501f}, !- Space Name
  Surface,                                !- Outside Boundary Condition
  {7e038435-3b43-4e7c-abf1-84c9169df74c}, !- Outside Boundary Condition Object
  NoSun,                                  !- Sun Exposure
  NoWind,                                 !- Wind Exposure
  ,                                       !- View Factor to Ground
  ,                                       !- Number of Vertices
  16.0892830995045, 3.6576, 2.4384,       !- X,Y,Z Vertex 1 {m}
  16.0892830995045, 3.6576, 0,            !- X,Y,Z Vertex 2 {m}
  12.4316830995045, 3.6576, 0,            !- X,Y,Z Vertex 3 {m}
  12.4316830995045, 3.6576, 2.4384;       !- X,Y,Z Vertex 4 {m}

OS:Surface,
  {711e43df-bd66-4579-8a12-ab14550defe2}, !- Handle
  Surface 4,                              !- Name
  Wall,                                   !- Surface Type
  {79653dc0-246f-45bd-a6d0-34baefd31aa8}, !- Construction Name
  {2d5118e8-77a1-4b01-bb2b-593fd479501f}, !- Space Name
  Outdoors,                               !- Outside Boundary Condition
  ,                                       !- Outside Boundary Condition Object
  SunExposed,                             !- Sun Exposure
  WindExposed,                            !- Wind Exposure
  ,                                       !- View Factor to Ground
  ,                                       !- Number of Vertices
  16.0892830995045, -3.6576, 2.4384,      !- X,Y,Z Vertex 1 {m}
  16.0892830995045, -3.6576, 0,           !- X,Y,Z Vertex 2 {m}
  16.0892830995045, 3.6576, 0,            !- X,Y,Z Vertex 3 {m}
  16.0892830995045, 3.6576, 2.4384;       !- X,Y,Z Vertex 4 {m}

OS:Surface,