!- NOTE: Auto-generated from /test/osw_files/SFD_2000sqft_2story_FB_UA_Denver_Furnace_CentralAC.osw

OS:Version,
  {8aec8064-ee81-4d5c-933a-347bcd2a0f0f}, !- Handle
  2.9.0;                                  !- Version Identifier

OS:SimulationControl,
  {6119b216-9e89-456c-8e2f-4fabdaa236c9}, !- Handle
  ,                                       !- Do Zone Sizing Calculation
  ,                                       !- Do System Sizing Calculation
  ,                                       !- Do Plant Sizing Calculation
  No;                                     !- Run Simulation for Sizing Periods

OS:Timestep,
  {2b7295d8-e759-428d-ae54-6439189a99e3}, !- Handle
  6;                                      !- Number of Timesteps per Hour

OS:ShadowCalculation,
  {4c20931f-d72c-481f-9617-a43fec86be45}, !- Handle
  20,                                     !- Calculation Frequency
  200;                                    !- Maximum Figures in Shadow Overlap Calculations

OS:SurfaceConvectionAlgorithm:Outside,
  {583e9f25-26d5-47bc-b326-bcf1ac1e8823}, !- Handle
  DOE-2;                                  !- Algorithm

OS:SurfaceConvectionAlgorithm:Inside,
  {d3c1248d-e895-4cc3-a92c-248822a59886}, !- Handle
  TARP;                                   !- Algorithm

OS:ZoneCapacitanceMultiplier:ResearchSpecial,
  {90092dab-6725-4710-9db2-c2709f2b14c5}, !- Handle
  ,                                       !- Temperature Capacity Multiplier
  15,                                     !- Humidity Capacity Multiplier
  ;                                       !- Carbon Dioxide Capacity Multiplier

OS:RunPeriod,
  {96a30808-dfeb-4d5a-bba3-cecce135d09c}, !- Handle
  Run Period 1,                           !- Name
  1,                                      !- Begin Month
  1,                                      !- Begin Day of Month
  12,                                     !- End Month
  31,                                     !- End Day of Month
  ,                                       !- Use Weather File Holidays and Special Days
  ,                                       !- Use Weather File Daylight Saving Period
  ,                                       !- Apply Weekend Holiday Rule
  ,                                       !- Use Weather File Rain Indicators
  ,                                       !- Use Weather File Snow Indicators
  ;                                       !- Number of Times Runperiod to be Repeated

OS:YearDescription,
  {27225fe9-d627-4f15-a482-a6f0e3714ae4}, !- Handle
  2007,                                   !- Calendar Year
  ,                                       !- Day of Week for Start Day
  ;                                       !- Is Leap Year

OS:ThermalZone,
  {bb6e248b-e3e8-47f3-82c7-f58b3ed4e352}, !- Handle
  living zone,                            !- Name
  ,                                       !- Multiplier
  ,                                       !- Ceiling Height {m}
  ,                                       !- Volume {m3}
  ,                                       !- Floor Area {m2}
  ,                                       !- Zone Inside Convection Algorithm
  ,                                       !- Zone Outside Convection Algorithm
  ,                                       !- Zone Conditioning Equipment List Name
  {f0e98453-a95b-40f6-93d5-784be423cb8a}, !- Zone Air Inlet Port List
  {1302c46f-691c-4fb4-897f-08cd6cf30c78}, !- Zone Air Exhaust Port List
  {9708f32b-c524-46cf-bfdf-ae3a29dfa06a}, !- Zone Air Node Name
  {b532f667-787f-4068-8f84-11840fee2d32}, !- Zone Return Air Port List
  ,                                       !- Primary Daylighting Control Name
  ,                                       !- Fraction of Zone Controlled by Primary Daylighting Control
  ,                                       !- Secondary Daylighting Control Name
  ,                                       !- Fraction of Zone Controlled by Secondary Daylighting Control
  ,                                       !- Illuminance Map Name
  ,                                       !- Group Rendering Name
  {f744a9f8-3887-499a-b878-76d355207310}, !- Thermostat Name
  No;                                     !- Use Ideal Air Loads

OS:Node,
  {f5cc1786-c1df-4bed-9a60-100beec83399}, !- Handle
  Node 1,                                 !- Name
  {9708f32b-c524-46cf-bfdf-ae3a29dfa06a}, !- Inlet Port
  ;                                       !- Outlet Port

OS:Connection,
  {9708f32b-c524-46cf-bfdf-ae3a29dfa06a}, !- Handle
  {97e9349c-6617-43cb-8c13-0ce1eea4e456}, !- Name
  {bb6e248b-e3e8-47f3-82c7-f58b3ed4e352}, !- Source Object
  11,                                     !- Outlet Port
  {f5cc1786-c1df-4bed-9a60-100beec83399}, !- Target Object
  2;                                      !- Inlet Port

OS:PortList,
  {f0e98453-a95b-40f6-93d5-784be423cb8a}, !- Handle
  {d839a030-ee45-4f2e-99d5-0e18d33397cd}, !- Name
  {bb6e248b-e3e8-47f3-82c7-f58b3ed4e352}, !- HVAC Component
  {e1a93cb3-ea2f-449c-a729-cbd5fc9649ad}, !- Port 1
  {8839baa5-3119-4d4f-a301-4e518f2aeca9}; !- Port 2

OS:PortList,
  {1302c46f-691c-4fb4-897f-08cd6cf30c78}, !- Handle
  {eeaf4269-5539-47c2-b277-ad28e6376bbb}, !- Name
  {bb6e248b-e3e8-47f3-82c7-f58b3ed4e352}; !- HVAC Component

OS:PortList,
  {b532f667-787f-4068-8f84-11840fee2d32}, !- Handle
  {4f34d140-8d35-42ae-8991-34a69682d0da}, !- Name
  {bb6e248b-e3e8-47f3-82c7-f58b3ed4e352}, !- HVAC Component
  {b8ce6a2c-e65e-4ab4-af5c-1b4e42ed274a}, !- Port 1
  {f2a45ea5-29e2-4979-92c1-525378b617e6}; !- Port 2

OS:Sizing:Zone,
  {dbf65938-83de-4441-b88b-8e81af2d288a}, !- Handle
  {bb6e248b-e3e8-47f3-82c7-f58b3ed4e352}, !- Zone or ZoneList Name
  SupplyAirTemperature,                   !- Zone Cooling Design Supply Air Temperature Input Method
  14,                                     !- Zone Cooling Design Supply Air Temperature {C}
  11.11,                                  !- Zone Cooling Design Supply Air Temperature Difference {deltaC}
  SupplyAirTemperature,                   !- Zone Heating Design Supply Air Temperature Input Method
  40,                                     !- Zone Heating Design Supply Air Temperature {C}
  11.11,                                  !- Zone Heating Design Supply Air Temperature Difference {deltaC}
  0.0085,                                 !- Zone Cooling Design Supply Air Humidity Ratio {kg-H2O/kg-air}
  0.008,                                  !- Zone Heating Design Supply Air Humidity Ratio {kg-H2O/kg-air}
  ,                                       !- Zone Heating Sizing Factor
  ,                                       !- Zone Cooling Sizing Factor
  DesignDay,                              !- Cooling Design Air Flow Method
  ,                                       !- Cooling Design Air Flow Rate {m3/s}
  ,                                       !- Cooling Minimum Air Flow per Zone Floor Area {m3/s-m2}
  ,                                       !- Cooling Minimum Air Flow {m3/s}
  ,                                       !- Cooling Minimum Air Flow Fraction
  DesignDay,                              !- Heating Design Air Flow Method
  ,                                       !- Heating Design Air Flow Rate {m3/s}
  ,                                       !- Heating Maximum Air Flow per Zone Floor Area {m3/s-m2}
  ,                                       !- Heating Maximum Air Flow {m3/s}
  ,                                       !- Heating Maximum Air Flow Fraction
  ,                                       !- Design Zone Air Distribution Effectiveness in Cooling Mode
  ,                                       !- Design Zone Air Distribution Effectiveness in Heating Mode
  No,                                     !- Account for Dedicated Outdoor Air System
  NeutralSupplyAir,                       !- Dedicated Outdoor Air System Control Strategy
  autosize,                               !- Dedicated Outdoor Air Low Setpoint Temperature for Design {C}
  autosize;                               !- Dedicated Outdoor Air High Setpoint Temperature for Design {C}

OS:ZoneHVAC:EquipmentList,
  {a3a7e013-9849-4702-bad8-4424680edb46}, !- Handle
  Zone HVAC Equipment List 1,             !- Name
  {bb6e248b-e3e8-47f3-82c7-f58b3ed4e352}, !- Thermal Zone
  SequentialLoad,                         !- Load Distribution Scheme
  {264e3e63-b178-4830-b79d-7f95c1fc59ef}, !- Zone Equipment 1
  1,                                      !- Zone Equipment Cooling Sequence 1
  1,                                      !- Zone Equipment Heating or No-Load Sequence 1
  ,                                       !- Zone Equipment Sequential Cooling Fraction Schedule Name 1
  ,                                       !- Zone Equipment Sequential Heating Fraction Schedule Name 1
  {fecfc98a-959a-41f5-99bc-9adc12bd594a}, !- Zone Equipment 2
  2,                                      !- Zone Equipment Cooling Sequence 2
  2,                                      !- Zone Equipment Heating or No-Load Sequence 2
  ,                                       !- Zone Equipment Sequential Cooling Fraction Schedule Name 2
  ;                                       !- Zone Equipment Sequential Heating Fraction Schedule Name 2

OS:ThermalZone,
  {2e8ef721-e021-4443-b18d-8eb231310acf}, !- Handle
  garage zone,                            !- Name
  ,                                       !- Multiplier
  ,                                       !- Ceiling Height {m}
  ,                                       !- Volume {m3}
  ,                                       !- Floor Area {m2}
  ,                                       !- Zone Inside Convection Algorithm
  ,                                       !- Zone Outside Convection Algorithm
  ,                                       !- Zone Conditioning Equipment List Name
  {d025a2f4-9147-4f9f-96fb-7f1f2a723ce3}, !- Zone Air Inlet Port List
  {e56da247-258b-4bbe-a8c0-002372e03f1f}, !- Zone Air Exhaust Port List
  {b5242cf0-6d9a-4aec-a9bf-e73c8eab7a81}, !- Zone Air Node Name
  {9aed6030-cab3-44d3-bc38-96d7c06f04e1}, !- Zone Return Air Port List
  ,                                       !- Primary Daylighting Control Name
  ,                                       !- Fraction of Zone Controlled by Primary Daylighting Control
  ,                                       !- Secondary Daylighting Control Name
  ,                                       !- Fraction of Zone Controlled by Secondary Daylighting Control
  ,                                       !- Illuminance Map Name
  ,                                       !- Group Rendering Name
  ,                                       !- Thermostat Name
  No;                                     !- Use Ideal Air Loads

OS:Node,
  {1778d631-f943-4a9f-8a83-ee87699c5c28}, !- Handle
  Node 2,                                 !- Name
  {b5242cf0-6d9a-4aec-a9bf-e73c8eab7a81}, !- Inlet Port
  ;                                       !- Outlet Port

OS:Connection,
  {b5242cf0-6d9a-4aec-a9bf-e73c8eab7a81}, !- Handle
  {3cd3c852-d219-44da-85c3-12d5bef98db6}, !- Name
  {2e8ef721-e021-4443-b18d-8eb231310acf}, !- Source Object
  11,                                     !- Outlet Port
  {1778d631-f943-4a9f-8a83-ee87699c5c28}, !- Target Object
  2;                                      !- Inlet Port

OS:PortList,
  {d025a2f4-9147-4f9f-96fb-7f1f2a723ce3}, !- Handle
  {55e3ae1c-5d3c-4e14-92cc-8e88f38be2a7}, !- Name
  {2e8ef721-e021-4443-b18d-8eb231310acf}; !- HVAC Component

OS:PortList,
  {e56da247-258b-4bbe-a8c0-002372e03f1f}, !- Handle
  {7e2bc1a3-a30f-489e-99a2-3e23fff45bce}, !- Name
  {2e8ef721-e021-4443-b18d-8eb231310acf}; !- HVAC Component

OS:PortList,
  {9aed6030-cab3-44d3-bc38-96d7c06f04e1}, !- Handle
  {12545dba-2b70-45a2-a4f1-1c96ba7981ff}, !- Name
  {2e8ef721-e021-4443-b18d-8eb231310acf}; !- HVAC Component

OS:Sizing:Zone,
  {d2c4ea82-ba29-4465-af8f-dbf389e40727}, !- Handle
  {2e8ef721-e021-4443-b18d-8eb231310acf}, !- Zone or ZoneList Name
  SupplyAirTemperature,                   !- Zone Cooling Design Supply Air Temperature Input Method
  14,                                     !- Zone Cooling Design Supply Air Temperature {C}
  11.11,                                  !- Zone Cooling Design Supply Air Temperature Difference {deltaC}
  SupplyAirTemperature,                   !- Zone Heating Design Supply Air Temperature Input Method
  40,                                     !- Zone Heating Design Supply Air Temperature {C}
  11.11,                                  !- Zone Heating Design Supply Air Temperature Difference {deltaC}
  0.0085,                                 !- Zone Cooling Design Supply Air Humidity Ratio {kg-H2O/kg-air}
  0.008,                                  !- Zone Heating Design Supply Air Humidity Ratio {kg-H2O/kg-air}
  ,                                       !- Zone Heating Sizing Factor
  ,                                       !- Zone Cooling Sizing Factor
  DesignDay,                              !- Cooling Design Air Flow Method
  ,                                       !- Cooling Design Air Flow Rate {m3/s}
  ,                                       !- Cooling Minimum Air Flow per Zone Floor Area {m3/s-m2}
  ,                                       !- Cooling Minimum Air Flow {m3/s}
  ,                                       !- Cooling Minimum Air Flow Fraction
  DesignDay,                              !- Heating Design Air Flow Method
  ,                                       !- Heating Design Air Flow Rate {m3/s}
  ,                                       !- Heating Maximum Air Flow per Zone Floor Area {m3/s-m2}
  ,                                       !- Heating Maximum Air Flow {m3/s}
  ,                                       !- Heating Maximum Air Flow Fraction
  ,                                       !- Design Zone Air Distribution Effectiveness in Cooling Mode
  ,                                       !- Design Zone Air Distribution Effectiveness in Heating Mode
  No,                                     !- Account for Dedicated Outdoor Air System
  NeutralSupplyAir,                       !- Dedicated Outdoor Air System Control Strategy
  autosize,                               !- Dedicated Outdoor Air Low Setpoint Temperature for Design {C}
  autosize;                               !- Dedicated Outdoor Air High Setpoint Temperature for Design {C}

OS:ZoneHVAC:EquipmentList,
  {2953c150-f79e-45cf-ae01-f061f73c938d}, !- Handle
  Zone HVAC Equipment List 2,             !- Name
  {2e8ef721-e021-4443-b18d-8eb231310acf}; !- Thermal Zone

OS:Space,
  {b5e70ce1-113e-4b5e-bd2e-0582ae7abcf8}, !- Handle
  garage space,                           !- Name
  {8548e989-93d7-4e90-8d3a-3e3adb9f1842}, !- Space Type Name
  ,                                       !- Default Construction Set Name
  ,                                       !- Default Schedule Set Name
  -0,                                     !- Direction of Relative North {deg}
  0,                                      !- X Origin {m}
  0,                                      !- Y Origin {m}
  0,                                      !- Z Origin {m}
  ,                                       !- Building Story Name
  {2e8ef721-e021-4443-b18d-8eb231310acf}; !- Thermal Zone Name

OS:Surface,
  {53f21353-bc3d-42e1-b4bf-a687245cf9cf}, !- Handle
  Surface 1,                              !- Name
  Floor,                                  !- Surface Type
  ,                                       !- Construction Name
  {b5e70ce1-113e-4b5e-bd2e-0582ae7abcf8}, !- Space Name
  Foundation,                             !- Outside Boundary Condition
  ,                                       !- Outside Boundary Condition Object
  NoSun,                                  !- Sun Exposure
  NoWind,                                 !- Wind Exposure
  ,                                       !- View Factor to Ground
  ,                                       !- Number of Vertices
  5.57695129776527, -3.048, 0,            !- X,Y,Z Vertex 1 {m}
  5.57695129776527, 3.048, 0,             !- X,Y,Z Vertex 2 {m}
  11.6729512977653, 3.048, 0,             !- X,Y,Z Vertex 3 {m}
  11.6729512977653, -3.048, 0;            !- X,Y,Z Vertex 4 {m}

OS:Surface,
  {e7b9838f-2338-4de5-832f-034d1db1503b}, !- Handle
  Surface 2,                              !- Name
  Wall,                                   !- Surface Type
  ,                                       !- Construction Name
  {b5e70ce1-113e-4b5e-bd2e-0582ae7abcf8}, !- Space Name
  Surface,                                !- Outside Boundary Condition
  {32004d20-a4f9-4c5a-85aa-c10505bf44bb}, !- Outside Boundary Condition Object
  NoSun,                                  !- Sun Exposure
  NoWind,                                 !- Wind Exposure
  ,                                       !- View Factor to Ground
  ,                                       !- Number of Vertices
  5.57695129776527, 3.048, 2.4384,        !- X,Y,Z Vertex 1 {m}
  5.57695129776527, 3.048, 0,             !- X,Y,Z Vertex 2 {m}
  5.57695129776527, 0, 0,                 !- X,Y,Z Vertex 3 {m}
  5.57695129776527, 0, 2.4384;            !- X,Y,Z Vertex 4 {m}

OS:Surface,
  {75428d09-d319-49da-846d-11197f192926}, !- Handle
  Surface 3,                              !- Name
  Wall,                                   !- Surface Type
  ,                                       !- Construction Name
  {b5e70ce1-113e-4b5e-bd2e-0582ae7abcf8}, !- Space Name
  Surface,                                !- Outside Boundary Condition
  {7b118da1-5d68-42f1-8235-205fd8e13dda}, !- Outside Boundary Condition Object
  NoSun,                                  !- Sun Exposure
  NoWind,                                 !- Wind Exposure
  ,                                       !- View Factor to Ground
  ,                                       !- Number of Vertices
  11.6729512977653, 3.048, 2.4384,        !- X,Y,Z Vertex 1 {m}
  11.6729512977653, 3.048, 0,             !- X,Y,Z Vertex 2 {m}
  5.57695129776527, 3.048, 0,             !- X,Y,Z Vertex 3 {m}
  5.57695129776527, 3.048, 2.4384;        !- X,Y,Z Vertex 4 {m}

OS:Surface,
  {9b98898b-bede-4ef4-8c8c-c1d38b5a839e}, !- Handle
  Surface 4,                              !- Name
  Wall,                                   !- Surface Type
  ,                                       !- Construction Name
  {b5e70ce1-113e-4b5e-bd2e-0582ae7abcf8}, !- Space Name
  Outdoors,                               !- Outside Boundary Condition
  ,                                       !- Outside Boundary Condition Object
  SunExposed,                             !- Sun Exposure
  WindExposed,                            !- Wind Exposure
  ,                                       !- View Factor to Ground
  ,                                       !- Number of Vertices
  11.6729512977653, -3.048, 2.4384,       !- X,Y,Z Vertex 1 {m}
  11.6729512977653, -3.048, 0,            !- X,Y,Z Vertex 2 {m}
  11.6729512977653, 3.048, 0,             !- X,Y,Z Vertex 3 {m}
  11.6729512977653, 3.048, 2.4384;        !- X,Y,Z Vertex 4 {m}

OS:Surface,
  {7a1014df-66a1-4548-8a4c-c4341b229f43}, !- Handle
  Surface 5,                              !- Name
  Wall,                                   !- Surface Type
  ,                                       !- Construction Name
  {b5e70ce1-113e-4b5e-bd2e-0582ae7abcf8}, !- Space Name
  Outdoors,                               !- Outside Boundary Condition
  ,                                       !- Outside Boundary Condition Object
  SunExposed,                             !- Sun Exposure
  WindExposed,                            !- Wind Exposure
  ,                                       !- View Factor to Ground
  ,                                       !- Number of Vertices
  5.57695129776527, -3.048, 2.4384,       !- X,Y,Z Vertex 1 {m}
  5.57695129776527, -3.048, 0,            !- X,Y,Z Vertex 2 {m}
  11.6729512977653, -3.048, 0,            !- X,Y,Z Vertex 3 {m}
  11.6729512977653, -3.048, 2.4384;       !- X,Y,Z Vertex 4 {m}

OS:Surface,
  {782d3b9a-e078-4195-844c-33d201a9509b}, !- Handle
  Surface 6,                              !- Name
  RoofCeiling,                            !- Surface Type
  ,                                       !- Construction Name
  {b5e70ce1-113e-4b5e-bd2e-0582ae7abcf8}, !- Space Name
  Surface,                                !- Outside Boundary Condition
  {440f9556-d3df-4f2e-8b1c-b6696af098af}, !- Outside Boundary Condition Object
  NoSun,                                  !- Sun Exposure
  NoWind,                                 !- Wind Exposure
  ,                                       !- View Factor to Ground
  ,                                       !- Number of Vertices
  11.6729512977653, -3.048, 2.4384,       !- X,Y,Z Vertex 1 {m}
  11.6729512977653, 3.048, 2.4384,        !- X,Y,Z Vertex 2 {m}
  5.57695129776527, 3.048, 2.4384,        !- X,Y,Z Vertex 3 {m}
  5.57695129776527, -3.048, 2.4384;       !- X,Y,Z Vertex 4 {m}

OS:SpaceType,
  {8548e989-93d7-4e90-8d3a-3e3adb9f1842}, !- Handle
  Space Type 1,                           !- Name
  ,                                       !- Default Construction Set Name
  ,                                       !- Default Schedule Set Name
  ,                                       !- Group Rendering Name
  ,                                       !- Design Specification Outdoor Air Object Name
  ,                                       !- Standards Template
  ,                                       !- Standards Building Type
  garage;                                 !- Standards Space Type

OS:Space,
  {6d1b01ad-92cd-4a44-854c-c8978f45b91f}, !- Handle
  living space,                           !- Name
  {401cb738-f028-4b95-b207-2762732c1384}, !- Space Type Name
  ,                                       !- Default Construction Set Name
  ,                                       !- Default Schedule Set Name
  -0,                                     !- Direction of Relative North {deg}
  0,                                      !- X Origin {m}
  0,                                      !- Y Origin {m}
  0,                                      !- Z Origin {m}
  ,                                       !- Building Story Name
  {bb6e248b-e3e8-47f3-82c7-f58b3ed4e352}, !- Thermal Zone Name
  ,                                       !- Part of Total Floor Area
  ,                                       !- Design Specification Outdoor Air Object Name
  {2b0d1f2f-7906-495a-bd9b-d55e821a5f30}; !- Building Unit Name

OS:Surface,
  {6ecbdcbf-3b19-4c41-a8db-36b09658622b}, !- Handle
  Surface 7,                              !- Name
  Floor,                                  !- Surface Type
  ,                                       !- Construction Name
  {6d1b01ad-92cd-4a44-854c-c8978f45b91f}, !- Space Name
  Surface,                                !- Outside Boundary Condition
  {3d289d9f-3baf-45e2-b72b-6f88d0fea3c7}, !- Outside Boundary Condition Object
  NoSun,                                  !- Sun Exposure
  NoWind,                                 !- Wind Exposure
  ,                                       !- View Factor to Ground
  ,                                       !- Number of Vertices
  0, 0, 0,                                !- X,Y,Z Vertex 1 {m}
  0, 5.83647564888264, 0,                 !- X,Y,Z Vertex 2 {m}
  11.6729512977653, 5.83647564888264, 0,  !- X,Y,Z Vertex 3 {m}
  11.6729512977653, 3.048, 0,             !- X,Y,Z Vertex 4 {m}
  5.57695129776527, 3.048, 0,             !- X,Y,Z Vertex 5 {m}
  5.57695129776527, 0, 0;                 !- X,Y,Z Vertex 6 {m}

OS:Surface,
  {619654bb-7c67-4809-84af-e5711615dbd8}, !- Handle
  Surface 8,                              !- Name
  Wall,                                   !- Surface Type
  ,                                       !- Construction Name
  {6d1b01ad-92cd-4a44-854c-c8978f45b91f}, !- Space Name
  Outdoors,                               !- Outside Boundary Condition
  ,                                       !- Outside Boundary Condition Object
  SunExposed,                             !- Sun Exposure
  WindExposed,                            !- Wind Exposure
  ,                                       !- View Factor to Ground
  ,                                       !- Number of Vertices
  0, 5.83647564888264, 2.4384,            !- X,Y,Z Vertex 1 {m}
  0, 5.83647564888264, 0,                 !- X,Y,Z Vertex 2 {m}
  0, 0, 0,                                !- X,Y,Z Vertex 3 {m}
  0, 0, 2.4384;                           !- X,Y,Z Vertex 4 {m}

OS:Surface,
  {13d3fa7a-7382-44c0-bfe5-503c144b79aa}, !- Handle
  Surface 9,                              !- Name
  Wall,                                   !- Surface Type
  ,                                       !- Construction Name
  {6d1b01ad-92cd-4a44-854c-c8978f45b91f}, !- Space Name
  Outdoors,                               !- Outside Boundary Condition
  ,                                       !- Outside Boundary Condition Object
  SunExposed,                             !- Sun Exposure
  WindExposed,                            !- Wind Exposure
  ,                                       !- View Factor to Ground
  ,                                       !- Number of Vertices
  11.6729512977653, 5.83647564888264, 2.4384, !- X,Y,Z Vertex 1 {m}
  11.6729512977653, 5.83647564888264, 0,  !- X,Y,Z Vertex 2 {m}
  0, 5.83647564888264, 0,                 !- X,Y,Z Vertex 3 {m}
  0, 5.83647564888264, 2.4384;            !- X,Y,Z Vertex 4 {m}

OS:Surface,
  {04a66a4c-0d40-400d-99f1-d9fd986c6406}, !- Handle
  Surface 10,                             !- Name
  Wall,                                   !- Surface Type
  ,                                       !- Construction Name
  {6d1b01ad-92cd-4a44-854c-c8978f45b91f}, !- Space Name
  Outdoors,                               !- Outside Boundary Condition
  ,                                       !- Outside Boundary Condition Object
  SunExposed,                             !- Sun Exposure
  WindExposed,                            !- Wind Exposure
  ,                                       !- View Factor to Ground
  ,                                       !- Number of Vertices
  11.6729512977653, 3.048, 2.4384,        !- X,Y,Z Vertex 1 {m}
  11.6729512977653, 3.048, 0,             !- X,Y,Z Vertex 2 {m}
  11.6729512977653, 5.83647564888264, 0,  !- X,Y,Z Vertex 3 {m}
  11.6729512977653, 5.83647564888264, 2.4384; !- X,Y,Z Vertex 4 {m}

OS:Surface,
  {7b118da1-5d68-42f1-8235-205fd8e13dda}, !- Handle
  Surface 11,                             !- Name
  Wall,                                   !- Surface Type
  ,                                       !- Construction Name
  {6d1b01ad-92cd-4a44-854c-c8978f45b91f}, !- Space Name
  Surface,                                !- Outside Boundary Condition
  {75428d09-d319-49da-846d-11197f192926}, !- Outside Boundary Condition Object
  NoSun,                                  !- Sun Exposure
  NoWind,                                 !- Wind Exposure
  ,                                       !- View Factor to Ground
  ,                                       !- Number of Vertices
  5.57695129776527, 3.048, 2.4384,        !- X,Y,Z Vertex 1 {m}
  5.57695129776527, 3.048, 0,             !- X,Y,Z Vertex 2 {m}
  11.6729512977653, 3.048, 0,             !- X,Y,Z Vertex 3 {m}
  11.6729512977653, 3.048, 2.4384;        !- X,Y,Z Vertex 4 {m}

OS:Surface,
  {32004d20-a4f9-4c5a-85aa-c10505bf44bb}, !- Handle
  Surface 12,                             !- Name
  Wall,                                   !- Surface Type
  ,                                       !- Construction Name
  {6d1b01ad-92cd-4a44-854c-c8978f45b91f}, !- Space Name
  Surface,                                !- Outside Boundary Condition
  {e7b9838f-2338-4de5-832f-034d1db1503b}, !- Outside Boundary Condition Object
  NoSun,                                  !- Sun Exposure
  NoWind,                                 !- Wind Exposure
  ,                                       !- View Factor to Ground
  ,                                       !- Number of Vertices
  5.57695129776527, 0, 2.4384,            !- X,Y,Z Vertex 1 {m}
  5.57695129776527, 0, 0,                 !- X,Y,Z Vertex 2 {m}
  5.57695129776527, 3.048, 0,             !- X,Y,Z Vertex 3 {m}
  5.57695129776527, 3.048, 2.4384;        !- X,Y,Z Vertex 4 {m}

OS:Surface,
  {15313b03-ed73-45a8-ad18-5aa10b914560}, !- Handle
  Surface 13,                             !- Name
  Wall,                                   !- Surface Type
  ,                                       !- Construction Name
  {6d1b01ad-92cd-4a44-854c-c8978f45b91f}, !- Space Name
  Outdoors,                               !- Outside Boundary Condition
  ,                                       !- Outside Boundary Condition Object
  SunExposed,                             !- Sun Exposure
  WindExposed,                            !- Wind Exposure
  ,                                       !- View Factor to Ground
  ,                                       !- Number of Vertices
  0, 0, 2.4384,                           !- X,Y,Z Vertex 1 {m}
  0, 0, 0,                                !- X,Y,Z Vertex 2 {m}
  5.57695129776527, 0, 0,                 !- X,Y,Z Vertex 3 {m}
  5.57695129776527, 0, 2.4384;            !- X,Y,Z Vertex 4 {m}

OS:Surface,
  {29bed920-8376-4830-a9cb-1e45dfe0e6b0}, !- Handle
  Surface 14,                             !- Name
  RoofCeiling,                            !- Surface Type
  ,                                       !- Construction Name
  {6d1b01ad-92cd-4a44-854c-c8978f45b91f}, !- Space Name
  Surface,                                !- Outside Boundary Condition
  {6ef99477-6563-4e5d-89aa-30f11cb18b7c}, !- Outside Boundary Condition Object
  NoSun,                                  !- Sun Exposure
  NoWind,                                 !- Wind Exposure
  ,                                       !- View Factor to Ground
  ,                                       !- Number of Vertices
  5.57695129776527, 0, 2.4384,            !- X,Y,Z Vertex 1 {m}
  5.57695129776527, 3.048, 2.4384,        !- X,Y,Z Vertex 2 {m}