!- NOTE: Auto-generated from /test/osw_files/SFD_2000sqft_2story_FB_GRG_UA_Southwest.osw

OS:Version,
  {8462a572-1137-4d1a-ae08-e85fbd36998a}, !- Handle
  2.9.1;                                  !- Version Identifier

OS:SimulationControl,
  {783ce606-f040-44e6-975d-f73babd414e3}, !- Handle
  ,                                       !- Do Zone Sizing Calculation
  ,                                       !- Do System Sizing Calculation
  ,                                       !- Do Plant Sizing Calculation
  No;                                     !- Run Simulation for Sizing Periods

OS:Timestep,
  {f39dc234-b75f-43da-8209-8229c1869bda}, !- Handle
  6;                                      !- Number of Timesteps per Hour

OS:ShadowCalculation,
  {552ebce1-010f-43b7-8062-5cd9f132249e}, !- Handle
  20,                                     !- Calculation Frequency
  200;                                    !- Maximum Figures in Shadow Overlap Calculations

OS:SurfaceConvectionAlgorithm:Outside,
  {57d8ce7c-545f-4bbe-9e01-b17bc8fc380c}, !- Handle
  DOE-2;                                  !- Algorithm

OS:SurfaceConvectionAlgorithm:Inside,
  {4ab7be9d-b355-463c-af41-88fc7185ded8}, !- Handle
  TARP;                                   !- Algorithm

OS:ZoneCapacitanceMultiplier:ResearchSpecial,
  {97ef3f71-4bec-4709-9205-4b23ad4d2bd0}, !- Handle
  ,                                       !- Temperature Capacity Multiplier
  15,                                     !- Humidity Capacity Multiplier
  ;                                       !- Carbon Dioxide Capacity Multiplier

OS:RunPeriod,
  {aa04bee1-7132-4179-97a8-219f6bbc9f53}, !- Handle
  Run Period 1,                           !- Name
  1,                                      !- Begin Month
  1,                                      !- Begin Day of Month
  12,                                     !- End Month
  31,                                     !- End Day of Month
  ,                                       !- Use Weather File Holidays and Special Days
  ,                                       !- Use Weather File Daylight Saving Period
  ,                                       !- Apply Weekend Holiday Rule
  ,                                       !- Use Weather File Rain Indicators
  ,                                       !- Use Weather File Snow Indicators
  ;                                       !- Number of Times Runperiod to be Repeated

OS:YearDescription,
  {a279b44b-b99a-4073-a4f7-31012af863bc}, !- Handle
  2007,                                   !- Calendar Year
  ,                                       !- Day of Week for Start Day
  ;                                       !- Is Leap Year

OS:ThermalZone,
  {22db69c3-ca9d-4388-9d5b-cbb3742c18af}, !- Handle
  living zone,                            !- Name
  ,                                       !- Multiplier
  ,                                       !- Ceiling Height {m}
  ,                                       !- Volume {m3}
  ,                                       !- Floor Area {m2}
  ,                                       !- Zone Inside Convection Algorithm
  ,                                       !- Zone Outside Convection Algorithm
  ,                                       !- Zone Conditioning Equipment List Name
  {8a0dd2fb-e4b8-4235-a15a-c598f9a75f02}, !- Zone Air Inlet Port List
  {30524018-d88a-4162-871a-efc5bf766291}, !- Zone Air Exhaust Port List
  {2ec469ae-af83-4707-b1bc-35d552f85253}, !- Zone Air Node Name
  {61506044-aaec-4fc8-bc2d-ba43901bf4c5}, !- Zone Return Air Port List
  ,                                       !- Primary Daylighting Control Name
  ,                                       !- Fraction of Zone Controlled by Primary Daylighting Control
  ,                                       !- Secondary Daylighting Control Name
  ,                                       !- Fraction of Zone Controlled by Secondary Daylighting Control
  ,                                       !- Illuminance Map Name
  ,                                       !- Group Rendering Name
  ,                                       !- Thermostat Name
  No;                                     !- Use Ideal Air Loads

OS:Node,
  {8a6792e6-2d35-4755-a1f9-3ea025d3d95b}, !- Handle
  Node 1,                                 !- Name
  {2ec469ae-af83-4707-b1bc-35d552f85253}, !- Inlet Port
  ;                                       !- Outlet Port

OS:Connection,
  {2ec469ae-af83-4707-b1bc-35d552f85253}, !- Handle
  {4c2271fe-e729-452e-882f-4aa05366a1d1}, !- Name
  {22db69c3-ca9d-4388-9d5b-cbb3742c18af}, !- Source Object
  11,                                     !- Outlet Port
  {8a6792e6-2d35-4755-a1f9-3ea025d3d95b}, !- Target Object
  2;                                      !- Inlet Port

OS:PortList,
  {8a0dd2fb-e4b8-4235-a15a-c598f9a75f02}, !- Handle
  {d4346072-af8f-43d1-a77a-fc8a0de4d258}, !- Name
  {22db69c3-ca9d-4388-9d5b-cbb3742c18af}; !- HVAC Component

OS:PortList,
  {30524018-d88a-4162-871a-efc5bf766291}, !- Handle
  {9376dcba-8339-435f-9518-32006c9597cf}, !- Name
  {22db69c3-ca9d-4388-9d5b-cbb3742c18af}; !- HVAC Component

OS:PortList,
  {61506044-aaec-4fc8-bc2d-ba43901bf4c5}, !- Handle
  {94c9e9c4-94f6-40dd-b3d4-bf4bd092f6e0}, !- Name
  {22db69c3-ca9d-4388-9d5b-cbb3742c18af}; !- HVAC Component

OS:Sizing:Zone,
  {68d0cdd9-e2ce-493c-a396-17164d1b9ee7}, !- Handle
  {22db69c3-ca9d-4388-9d5b-cbb3742c18af}, !- Zone or ZoneList Name
  SupplyAirTemperature,                   !- Zone Cooling Design Supply Air Temperature Input Method
  14,                                     !- Zone Cooling Design Supply Air Temperature {C}
  11.11,                                  !- Zone Cooling Design Supply Air Temperature Difference {deltaC}
  SupplyAirTemperature,                   !- Zone Heating Design Supply Air Temperature Input Method
  40,                                     !- Zone Heating Design Supply Air Temperature {C}
  11.11,                                  !- Zone Heating Design Supply Air Temperature Difference {deltaC}
  0.0085,                                 !- Zone Cooling Design Supply Air Humidity Ratio {kg-H2O/kg-air}
  0.008,                                  !- Zone Heating Design Supply Air Humidity Ratio {kg-H2O/kg-air}
  ,                                       !- Zone Heating Sizing Factor
  ,                                       !- Zone Cooling Sizing Factor
  DesignDay,                              !- Cooling Design Air Flow Method
  ,                                       !- Cooling Design Air Flow Rate {m3/s}
  ,                                       !- Cooling Minimum Air Flow per Zone Floor Area {m3/s-m2}
  ,                                       !- Cooling Minimum Air Flow {m3/s}
  ,                                       !- Cooling Minimum Air Flow Fraction
  DesignDay,                              !- Heating Design Air Flow Method
  ,                                       !- Heating Design Air Flow Rate {m3/s}
  ,                                       !- Heating Maximum Air Flow per Zone Floor Area {m3/s-m2}
  ,                                       !- Heating Maximum Air Flow {m3/s}
  ,                                       !- Heating Maximum Air Flow Fraction
  ,                                       !- Design Zone Air Distribution Effectiveness in Cooling Mode
  ,                                       !- Design Zone Air Distribution Effectiveness in Heating Mode
  No,                                     !- Account for Dedicated Outdoor Air System
  NeutralSupplyAir,                       !- Dedicated Outdoor Air System Control Strategy
  autosize,                               !- Dedicated Outdoor Air Low Setpoint Temperature for Design {C}
  autosize;                               !- Dedicated Outdoor Air High Setpoint Temperature for Design {C}

OS:ZoneHVAC:EquipmentList,
  {e428b742-41ff-4d5f-b408-ccb9e941f4e2}, !- Handle
  Zone HVAC Equipment List 1,             !- Name
  {22db69c3-ca9d-4388-9d5b-cbb3742c18af}; !- Thermal Zone

OS:ThermalZone,
  {14ef0ca9-2506-4247-996b-0283c2e8bd2e}, !- Handle
  garage zone,                            !- Name
  ,                                       !- Multiplier
  ,                                       !- Ceiling Height {m}
  ,                                       !- Volume {m3}
  ,                                       !- Floor Area {m2}
  ,                                       !- Zone Inside Convection Algorithm
  ,                                       !- Zone Outside Convection Algorithm
  ,                                       !- Zone Conditioning Equipment List Name
  {a89ef750-7893-41f5-a479-3ad1651d3d13}, !- Zone Air Inlet Port List
  {c2a2adb8-9081-427e-be74-99a9dd09419d}, !- Zone Air Exhaust Port List
  {71ac79b6-b883-4e47-a576-04d68a880b0a}, !- Zone Air Node Name
  {6634a131-fb59-4999-8ea7-e8a53f021bdc}, !- Zone Return Air Port List
  ,                                       !- Primary Daylighting Control Name
  ,                                       !- Fraction of Zone Controlled by Primary Daylighting Control
  ,                                       !- Secondary Daylighting Control Name
  ,                                       !- Fraction of Zone Controlled by Secondary Daylighting Control
  ,                                       !- Illuminance Map Name
  ,                                       !- Group Rendering Name
  ,                                       !- Thermostat Name
  No;                                     !- Use Ideal Air Loads

OS:Node,
  {e0decd6d-7f5d-4c68-bbf9-8fc7abb66fd1}, !- Handle
  Node 2,                                 !- Name
  {71ac79b6-b883-4e47-a576-04d68a880b0a}, !- Inlet Port
  ;                                       !- Outlet Port

OS:Connection,
  {71ac79b6-b883-4e47-a576-04d68a880b0a}, !- Handle
  {1c3f2694-3b14-44dd-9dfd-9ead7154ba84}, !- Name
  {14ef0ca9-2506-4247-996b-0283c2e8bd2e}, !- Source Object
  11,                                     !- Outlet Port
  {e0decd6d-7f5d-4c68-bbf9-8fc7abb66fd1}, !- Target Object
  2;                                      !- Inlet Port

OS:PortList,
  {a89ef750-7893-41f5-a479-3ad1651d3d13}, !- Handle
  {b71381b8-cbea-4bdf-a6c2-5b3af628e110}, !- Name
  {14ef0ca9-2506-4247-996b-0283c2e8bd2e}; !- HVAC Component

OS:PortList,
  {c2a2adb8-9081-427e-be74-99a9dd09419d}, !- Handle
  {9966abea-477f-492b-9c03-f41a26f5118c}, !- Name
  {14ef0ca9-2506-4247-996b-0283c2e8bd2e}; !- HVAC Component

OS:PortList,
  {6634a131-fb59-4999-8ea7-e8a53f021bdc}, !- Handle
  {12966762-5800-4679-8233-65de3a3db827}, !- Name
  {14ef0ca9-2506-4247-996b-0283c2e8bd2e}; !- HVAC Component

OS:Sizing:Zone,
  {d8da25dc-fb03-4046-bdbe-49606a9b27b1}, !- Handle
  {14ef0ca9-2506-4247-996b-0283c2e8bd2e}, !- Zone or ZoneList Name
  SupplyAirTemperature,                   !- Zone Cooling Design Supply Air Temperature Input Method
  14,                                     !- Zone Cooling Design Supply Air Temperature {C}
  11.11,                                  !- Zone Cooling Design Supply Air Temperature Difference {deltaC}
  SupplyAirTemperature,                   !- Zone Heating Design Supply Air Temperature Input Method
  40,                                     !- Zone Heating Design Supply Air Temperature {C}
  11.11,                                  !- Zone Heating Design Supply Air Temperature Difference {deltaC}
  0.0085,                                 !- Zone Cooling Design Supply Air Humidity Ratio {kg-H2O/kg-air}
  0.008,                                  !- Zone Heating Design Supply Air Humidity Ratio {kg-H2O/kg-air}
  ,                                       !- Zone Heating Sizing Factor
  ,                                       !- Zone Cooling Sizing Factor
  DesignDay,                              !- Cooling Design Air Flow Method
  ,                                       !- Cooling Design Air Flow Rate {m3/s}
  ,                                       !- Cooling Minimum Air Flow per Zone Floor Area {m3/s-m2}
  ,                                       !- Cooling Minimum Air Flow {m3/s}
  ,                                       !- Cooling Minimum Air Flow Fraction
  DesignDay,                              !- Heating Design Air Flow Method
  ,                                       !- Heating Design Air Flow Rate {m3/s}
  ,                                       !- Heating Maximum Air Flow per Zone Floor Area {m3/s-m2}
  ,                                       !- Heating Maximum Air Flow {m3/s}
  ,                                       !- Heating Maximum Air Flow Fraction
  ,                                       !- Design Zone Air Distribution Effectiveness in Cooling Mode
  ,                                       !- Design Zone Air Distribution Effectiveness in Heating Mode
  No,                                     !- Account for Dedicated Outdoor Air System
  NeutralSupplyAir,                       !- Dedicated Outdoor Air System Control Strategy
  autosize,                               !- Dedicated Outdoor Air Low Setpoint Temperature for Design {C}
  autosize;                               !- Dedicated Outdoor Air High Setpoint Temperature for Design {C}

OS:ZoneHVAC:EquipmentList,
  {4dfa09ce-4043-476b-8dbe-7dee5993f076}, !- Handle
  Zone HVAC Equipment List 2,             !- Name
  {14ef0ca9-2506-4247-996b-0283c2e8bd2e}; !- Thermal Zone

OS:Space,
  {d202175e-88d1-4ac1-b729-c310c843ceaa}, !- Handle
  garage space,                           !- Name
  {920eb000-90cb-4765-9085-1bfcd86dff96}, !- Space Type Name
  ,                                       !- Default Construction Set Name
  ,                                       !- Default Schedule Set Name
  -0,                                     !- Direction of Relative North {deg}
  0,                                      !- X Origin {m}
  0,                                      !- Y Origin {m}
  0,                                      !- Z Origin {m}
  ,                                       !- Building Story Name
  {14ef0ca9-2506-4247-996b-0283c2e8bd2e}; !- Thermal Zone Name

OS:Surface,
  {1b4acc2e-493a-4899-9360-d28fb26505c3}, !- Handle
  Surface 1,                              !- Name
  Floor,                                  !- Surface Type
  ,                                       !- Construction Name
  {d202175e-88d1-4ac1-b729-c310c843ceaa}, !- Space Name
  Foundation,                             !- Outside Boundary Condition
  ,                                       !- Outside Boundary Condition Object
  NoSun,                                  !- Sun Exposure
  NoWind,                                 !- Wind Exposure
  ,                                       !- View Factor to Ground
  ,                                       !- Number of Vertices
  5.57695129776527, -3.048, 0,            !- X,Y,Z Vertex 1 {m}
  5.57695129776527, 3.048, 0,             !- X,Y,Z Vertex 2 {m}
  11.6729512977653, 3.048, 0,             !- X,Y,Z Vertex 3 {m}
  11.6729512977653, -3.048, 0;            !- X,Y,Z Vertex 4 {m}

OS:Surface,
  {c19f2aa6-3b7d-473e-9f3a-7b094f0b0bdb}, !- Handle
  Surface 2,                              !- Name
  Wall,                                   !- Surface Type
  ,                                       !- Construction Name
  {d202175e-88d1-4ac1-b729-c310c843ceaa}, !- Space Name
  Surface,                                !- Outside Boundary Condition
  {efd23d98-f2f4-43bf-8689-7ec26218f344}, !- Outside Boundary Condition Object
  NoSun,                                  !- Sun Exposure
  NoWind,                                 !- Wind Exposure
  ,                                       !- View Factor to Ground
  ,                                       !- Number of Vertices
  5.57695129776527, 3.048, 2.4384,        !- X,Y,Z Vertex 1 {m}
  5.57695129776527, 3.048, 0,             !- X,Y,Z Vertex 2 {m}
  5.57695129776527, 0, 0,                 !- X,Y,Z Vertex 3 {m}
  5.57695129776527, 0, 2.4384;            !- X,Y,Z Vertex 4 {m}

OS:Surface,
  {005249b2-bb26-43d6-986e-4a47eb9af681}, !- Handle
  Surface 3,                              !- Name
  Wall,                                   !- Surface Type
  ,                                       !- Construction Name
  {d202175e-88d1-4ac1-b729-c310c843ceaa}, !- Space Name
  Surface,                                !- Outside Boundary Condition
  {042cb7ec-70c0-4ace-a3f6-69c562a4659a}, !- Outside Boundary Condition Object
  NoSun,                                  !- Sun Exposure
  NoWind,                                 !- Wind Exposure
  ,                                       !- View Factor to Ground
  ,                                       !- Number of Vertices
  11.6729512977653, 3.048, 2.4384,        !- X,Y,Z Vertex 1 {m}
  11.6729512977653, 3.048, 0,             !- X,Y,Z Vertex 2 {m}
  5.57695129776527, 3.048, 0,             !- X,Y,Z Vertex 3 {m}
  5.57695129776527, 3.048, 2.4384;        !- X,Y,Z Vertex 4 {m}

OS:Surface,
  {6b54ce3c-3056-413e-adaa-7527c318cc77}, !- Handle
  Surface 4,                              !- Name
  Wall,                                   !- Surface Type
  ,                                       !- Construction Name
  {d202175e-88d1-4ac1-b729-c310c843ceaa}, !- Space Name
  Outdoors,                               !- Outside Boundary Condition
  ,                                       !- Outside Boundary Condition Object
  SunExposed,                             !- Sun Exposure
  WindExposed,                            !- Wind Exposure
  ,                                       !- View Factor to Ground
  ,                                       !- Number of Vertices
  11.6729512977653, -3.048, 2.4384,       !- X,Y,Z Vertex 1 {m}
  11.6729512977653, -3.048, 0,            !- X,Y,Z Vertex 2 {m}
  11.6729512977653, 3.048, 0,             !- X,Y,Z Vertex 3 {m}
  11.6729512977653, 3.048, 2.4384;        !- X,Y,Z Vertex 4 {m}

OS:Surface,
  {226850cc-243c-45a3-8c6c-7983702f4ab2}, !- Handle
  Surface 5,                              !- Name
  Wall,                                   !- Surface Type
  ,                                       !- Construction Name
  {d202175e-88d1-4ac1-b729-c310c843ceaa}, !- Space Name
  Outdoors,                               !- Outside Boundary Condition
  ,                                       !- Outside Boundary Condition Object
  SunExposed,                             !- Sun Exposure
  WindExposed,                            !- Wind Exposure
  ,                                       !- View Factor to Ground
  ,                                       !- Number of Vertices
  5.57695129776527, -3.048, 2.4384,       !- X,Y,Z Vertex 1 {m}
  5.57695129776527, -3.048, 0,            !- X,Y,Z Vertex 2 {m}
  11.6729512977653, -3.048, 0,            !- X,Y,Z Vertex 3 {m}
  11.6729512977653, -3.048, 2.4384;       !- X,Y,Z Vertex 4 {m}

OS:Surface,
  {d1ee4131-aed5-4900-bcfd-554164c14bde}, !- Handle
  Surface 6,                              !- Name
  RoofCeiling,                            !- Surface Type
  ,                                       !- Construction Name
  {d202175e-88d1-4ac1-b729-c310c843ceaa}, !- Space Name
  Surface,                                !- Outside Boundary Condition
  {3c39f4ab-a5b2-411a-a1f9-77919e9bc7fe}, !- Outside Boundary Condition Object
  NoSun,                                  !- Sun Exposure
  NoWind,                                 !- Wind Exposure
  ,                                       !- View Factor to Ground
  ,                                       !- Number of Vertices
  11.6729512977653, -3.048, 2.4384,       !- X,Y,Z Vertex 1 {m}
  11.6729512977653, 3.048, 2.4384,        !- X,Y,Z Vertex 2 {m}
  5.57695129776527, 3.048, 2.4384,        !- X,Y,Z Vertex 3 {m}
  5.57695129776527, -3.048, 2.4384;       !- X,Y,Z Vertex 4 {m}

OS:SpaceType,
  {920eb000-90cb-4765-9085-1bfcd86dff96}, !- Handle
  Space Type 1,                           !- Name
  ,                                       !- Default Construction Set Name
  ,                                       !- Default Schedule Set Name
  ,                                       !- Group Rendering Name
  ,                                       !- Design Specification Outdoor Air Object Name
  ,                                       !- Standards Template
  ,                                       !- Standards Building Type
  garage;                                 !- Standards Space Type

OS:Space,
  {b3b28c2f-9a93-4aa1-b56a-6feaf3ed64f2}, !- Handle
  living space,                           !- Name
  {484564f1-eb74-45f8-99e2-ecc18310e0d9}, !- Space Type Name
  ,                                       !- Default Construction Set Name
  ,                                       !- Default Schedule Set Name
  -0,                                     !- Direction of Relative North {deg}
  0,                                      !- X Origin {m}
  0,                                      !- Y Origin {m}
  0,                                      !- Z Origin {m}
  ,                                       !- Building Story Name
  {22db69c3-ca9d-4388-9d5b-cbb3742c18af}, !- Thermal Zone Name
  ,                                       !- Part of Total Floor Area
  ,                                       !- Design Specification Outdoor Air Object Name
  {f94752e2-5fc0-4ba2-89c6-5913a96c8ec6}; !- Building Unit Name

OS:Surface,
  {568b7ece-ee77-4b31-8b94-bca3df09a2da}, !- Handle
  Surface 7,                              !- Name
  Floor,                                  !- Surface Type
  ,                                       !- Construction Name
  {b3b28c2f-9a93-4aa1-b56a-6feaf3ed64f2}, !- Space Name
  Surface,                                !- Outside Boundary Condition
  {06e996ac-6ad3-4e64-ab7b-f648a3bad624}, !- Outside Boundary Condition Object
  NoSun,                                  !- Sun Exposure
  NoWind,                                 !- Wind Exposure
  ,                                       !- View Factor to Ground
  ,                                       !- Number of Vertices
  0, 0, 0,                                !- X,Y,Z Vertex 1 {m}
  0, 5.83647564888264, 0,                 !- X,Y,Z Vertex 2 {m}
  11.6729512977653, 5.83647564888264, 0,  !- X,Y,Z Vertex 3 {m}
  11.6729512977653, 3.048, 0,             !- X,Y,Z Vertex 4 {m}
  5.57695129776527, 3.048, 0,             !- X,Y,Z Vertex 5 {m}
  5.57695129776527, 0, 0;                 !- X,Y,Z Vertex 6 {m}

OS:Surface,
  {7ba7060f-d37b-46ae-9b0f-0d47bde5bea6}, !- Handle
  Surface 8,                              !- Name
  Wall,                                   !- Surface Type
  ,                                       !- Construction Name
  {b3b28c2f-9a93-4aa1-b56a-6feaf3ed64f2}, !- Space Name
  Outdoors,                               !- Outside Boundary Condition
  ,                                       !- Outside Boundary Condition Object
  SunExposed,                             !- Sun Exposure
  WindExposed,                            !- Wind Exposure
  ,                                       !- View Factor to Ground
  ,                                       !- Number of Vertices
  0, 5.83647564888264, 2.4384,            !- X,Y,Z Vertex 1 {m}
  0, 5.83647564888264, 0,                 !- X,Y,Z Vertex 2 {m}
  0, 0, 0,                                !- X,Y,Z Vertex 3 {m}
  0, 0, 2.4384;                           !- X,Y,Z Vertex 4 {m}

OS:Surface,
  {1c624bd6-db53-4853-806c-6f7df2d382cf}, !- Handle
  Surface 9,                              !- Name
  Wall,                                   !- Surface Type
  ,                                       !- Construction Name
  {b3b28c2f-9a93-4aa1-b56a-6feaf3ed64f2}, !- Space Name
  Outdoors,                               !- Outside Boundary Condition
  ,                                       !- Outside Boundary Condition Object
  SunExposed,                             !- Sun Exposure
  WindExposed,                            !- Wind Exposure
  ,                                       !- View Factor to Ground
  ,                                       !- Number of Vertices
  11.6729512977653, 5.83647564888264, 2.4384, !- X,Y,Z Vertex 1 {m}
  11.6729512977653, 5.83647564888264, 0,  !- X,Y,Z Vertex 2 {m}
  0, 5.83647564888264, 0,                 !- X,Y,Z Vertex 3 {m}
  0, 5.83647564888264, 2.4384;            !- X,Y,Z Vertex 4 {m}

OS:Surface,
  {0e632f1f-127d-4006-845d-c8a09590289b}, !- Handle
  Surface 10,                             !- Name
  Wall,                                   !- Surface Type
  ,                                       !- Construction Name
  {b3b28c2f-9a93-4aa1-b56a-6feaf3ed64f2}, !- Space Name
  Outdoors,                               !- Outside Boundary Condition
  ,                                       !- Outside Boundary Condition Object
  SunExposed,                             !- Sun Exposure
  WindExposed,                            !- Wind Exposure
  ,                                       !- View Factor to Ground
  ,                                       !- Number of Vertices
  11.6729512977653, 3.048, 2.4384,        !- X,Y,Z Vertex 1 {m}
  11.6729512977653, 3.048, 0,             !- X,Y,Z Vertex 2 {m}
  11.6729512977653, 5.83647564888264, 0,  !- X,Y,Z Vertex 3 {m}
  11.6729512977653, 5.83647564888264, 2.4384; !- X,Y,Z Vertex 4 {m}

OS:Surface,
  {042cb7ec-70c0-4ace-a3f6-69c562a4659a}, !- Handle
  Surface 11,                             !- Name
  Wall,                                   !- Surface Type
  ,                                       !- Construction Name
  {b3b28c2f-9a93-4aa1-b56a-6feaf3ed64f2}, !- Space Name
  Surface,                                !- Outside Boundary Condition
  {005249b2-bb26-43d6-986e-4a47eb9af681}, !- Outside Boundary Condition Object
  NoSun,                                  !- Sun Exposure
  NoWind,                                 !- Wind Exposure
  ,                                       !- View Factor to Ground
  ,                                       !- Number of Vertices
  5.57695129776527, 3.048, 2.4384,        !- X,Y,Z Vertex 1 {m}
  5.57695129776527, 3.048, 0,             !- X,Y,Z Vertex 2 {m}
  11.6729512977653, 3.048, 0,             !- X,Y,Z Vertex 3 {m}
  11.6729512977653, 3.048, 2.4384;        !- X,Y,Z Vertex 4 {m}

OS:Surface,
  {efd23d98-f2f4-43bf-8689-7ec26218f344}, !- Handle
  Surface 12,                             !- Name
  Wall,                                   !- Surface Type
  ,                                       !- Construction Name
  {b3b28c2f-9a93-4aa1-b56a-6feaf3ed64f2}, !- Space Name
  Surface,                                !- Outside Boundary Condition
  {c19f2aa6-3b7d-473e-9f3a-7b094f0b0bdb}, !- Outside Boundary Condition Object
  NoSun,                                  !- Sun Exposure
  NoWind,                                 !- Wind Exposure
  ,                                       !- View Factor to Ground
  ,                                       !- Number of Vertices
  5.57695129776527, 0, 2.4384,            !- X,Y,Z Vertex 1 {m}
  5.57695129776527, 0, 0,                 !- X,Y,Z Vertex 2 {m}
  5.57695129776527, 3.048, 0,             !- X,Y,Z Vertex 3 {m}
  5.57695129776527, 3.048, 2.4384;        !- X,Y,Z Vertex 4 {m}

OS:Surface,
  {baaf2377-2dc5-4cac-b02d-e07b7aef39bd}, !- Handle
  Surface 13,                             !- Name
  Wall,                                   !- Surface Type
  ,                                       !- Construction Name
  {b3b28c2f-9a93-4aa1-b56a-6feaf3ed64f2}, !- Space Name
  Outdoors,                               !- Outside Boundary Condition
  ,                                       !- Outside Boundary Condition Object
  SunExposed,                             !- Sun Exposure
  WindExposed,                            !- Wind Exposure
  ,                                       !- View Factor to Ground
  ,                                       !- Number of Vertices
  0, 0, 2.4384,                           !- X,Y,Z Vertex 1 {m}
  0, 0, 0,                                !- X,Y,Z Vertex 2 {m}
  5.57695129776527, 0, 0,                 !- X,Y,Z Vertex 3 {m}
  5.57695129776527, 0, 2.4384;            !- X,Y,Z Vertex 4 {m}

OS:Surface,
  {57ffb838-762c-44de-a48d-cda34055b5bb}, !- Handle
  Surface 14,                             !- Name
  RoofCeiling,                            !- Surface Type
  ,                                       !- Construction Name
  {b3b28c2f-9a93-4aa1-b56a-6feaf3ed64f2}, !- Space Name
  Surface,                                !- Outside Boundary Condition
  {21e7415d-796f-41d7-9433-f5d484ec8cd3}, !- Outside Boundary Condition Object
  NoSun,                                  !- Sun Exposure
  NoWind,                                 !- Wind Exposure
  ,                                       !- View Factor to Ground
  ,                                       !- Number of Vertices
  5.57695129776527, 0, 2.4384,            !- X,Y,Z Vertex 1 {m}
  5.57695129776527, 3.048, 2.4384,        !- X,Y,Z Vertex 2 {m}
  11.6729512977653, 3.048, 2.4384,        !- X,Y,Z Vertex 3 {m}
  11.6729512977653, 5.83647564888264, 2.4384, !- X,Y,Z Vertex 4 {m}
  0, 5.83647564888264, 2.4384,            !- X,Y,Z Vertex 5 {m}
  0, 0, 2.4384;                           !- X,Y,Z Vertex 6 {m}

OS:SpaceType,
  {484564f1-eb74-45f8-99e2-ecc18310e0d9}, !- Handle
  Space Type 2,                           !- Name
  ,                                       !- Default Construction Set Name
  ,                                       !- Default Schedule Set Name
  ,                                       !- Group Rendering Name
  ,                                       !- Design Specification Outdoor Air Object Name
  ,                                       !- Standards Template
  ,                                       !- Standards Building Type
  living;                                 !- Standards Space Type

OS:Space,
  {0b964512-e0ba-4952-a964-6c1ae365cdbe}, !- Handle
  living space|story 2,                   !- Name
  {484564f1-eb74-45f8-99e2-ecc18310e0d9}, !- Space Type Name
  ,                                       !- Default Construction Set Name