!- NOTE: Auto-generated from /test/osw_files/SFD_2000sqft_2story_FB_UA_Denver_Boiler.osw

OS:Version,
  {d56f2206-b923-4d8a-af43-c692655214a8}, !- Handle
  2.8.1;                                  !- Version Identifier

OS:SimulationControl,
  {282018e3-3cb4-446c-bbb5-6596c2aeb665}, !- Handle
  ,                                       !- Do Zone Sizing Calculation
  ,                                       !- Do System Sizing Calculation
  ,                                       !- Do Plant Sizing Calculation
  No;                                     !- Run Simulation for Sizing Periods

OS:Timestep,
  {b6569287-60ff-458e-931f-5fa2393a49c0}, !- Handle
  6;                                      !- Number of Timesteps per Hour

OS:ShadowCalculation,
  {ee9ab60e-47cf-44ed-9932-86d458a59576}, !- Handle
  20,                                     !- Calculation Frequency
  200;                                    !- Maximum Figures in Shadow Overlap Calculations

OS:SurfaceConvectionAlgorithm:Outside,
  {411c1981-7083-458c-9a38-d4824418e22f}, !- Handle
  DOE-2;                                  !- Algorithm

OS:SurfaceConvectionAlgorithm:Inside,
  {85500c7a-f631-4f50-9848-70f875a06d40}, !- Handle
  TARP;                                   !- Algorithm

OS:ZoneCapacitanceMultiplier:ResearchSpecial,
  {35d7b254-d5b2-44b2-b331-39455d91bbf4}, !- Handle
  ,                                       !- Temperature Capacity Multiplier
  15,                                     !- Humidity Capacity Multiplier
  ;                                       !- Carbon Dioxide Capacity Multiplier

OS:RunPeriod,
  {0e27eb20-ad93-415a-aaf1-af5951f64bfd}, !- Handle
  Run Period 1,                           !- Name
  1,                                      !- Begin Month
  1,                                      !- Begin Day of Month
  12,                                     !- End Month
  31,                                     !- End Day of Month
  ,                                       !- Use Weather File Holidays and Special Days
  ,                                       !- Use Weather File Daylight Saving Period
  ,                                       !- Apply Weekend Holiday Rule
  ,                                       !- Use Weather File Rain Indicators
  ,                                       !- Use Weather File Snow Indicators
  ;                                       !- Number of Times Runperiod to be Repeated

OS:YearDescription,
  {5df4454a-865b-4eba-8a53-67142f2679fe}, !- Handle
  2007,                                   !- Calendar Year
  ,                                       !- Day of Week for Start Day
  ;                                       !- Is Leap Year

OS:ThermalZone,
  {08355bf9-142d-437b-bccd-71fd31295da9}, !- Handle
  living zone,                            !- Name
  ,                                       !- Multiplier
  ,                                       !- Ceiling Height {m}
  ,                                       !- Volume {m3}
  ,                                       !- Floor Area {m2}
  ,                                       !- Zone Inside Convection Algorithm
  ,                                       !- Zone Outside Convection Algorithm
  ,                                       !- Zone Conditioning Equipment List Name
  {126001b3-7d2b-4e63-99e5-30f109ffe3ed}, !- Zone Air Inlet Port List
  {bd6d4605-b97d-49d5-a116-5a14100fd7f8}, !- Zone Air Exhaust Port List
  {8ce8bb70-15d9-4ea2-948b-3d5a29501dae}, !- Zone Air Node Name
  {c9786558-f9e3-4fff-a1f1-f9fcf5e2d27d}, !- Zone Return Air Port List
  ,                                       !- Primary Daylighting Control Name
  ,                                       !- Fraction of Zone Controlled by Primary Daylighting Control
  ,                                       !- Secondary Daylighting Control Name
  ,                                       !- Fraction of Zone Controlled by Secondary Daylighting Control
  ,                                       !- Illuminance Map Name
  ,                                       !- Group Rendering Name
  {3bb89705-55d5-4229-8485-4f43abe4dc57}, !- Thermostat Name
  No;                                     !- Use Ideal Air Loads

OS:Node,
  {4afbac2b-3f1a-4563-b8b3-761ca9bb8e73}, !- Handle
  Node 1,                                 !- Name
  {8ce8bb70-15d9-4ea2-948b-3d5a29501dae}, !- Inlet Port
  ;                                       !- Outlet Port

OS:Connection,
  {8ce8bb70-15d9-4ea2-948b-3d5a29501dae}, !- Handle
  {43238c26-eb1f-4a6c-8a50-345c08fe5026}, !- Name
  {08355bf9-142d-437b-bccd-71fd31295da9}, !- Source Object
  11,                                     !- Outlet Port
  {4afbac2b-3f1a-4563-b8b3-761ca9bb8e73}, !- Target Object
  2;                                      !- Inlet Port

OS:PortList,
  {126001b3-7d2b-4e63-99e5-30f109ffe3ed}, !- Handle
  {550ac27e-8f3d-4269-bdad-3ab7cf9eb34f}, !- Name
  {08355bf9-142d-437b-bccd-71fd31295da9}; !- HVAC Component

OS:PortList,
  {bd6d4605-b97d-49d5-a116-5a14100fd7f8}, !- Handle
  {3401f679-37f1-477e-a526-bdf8e7f7e512}, !- Name
  {08355bf9-142d-437b-bccd-71fd31295da9}; !- HVAC Component

OS:PortList,
  {c9786558-f9e3-4fff-a1f1-f9fcf5e2d27d}, !- Handle
  {8b5661d8-0678-4035-a002-842fcfd52e0a}, !- Name
  {08355bf9-142d-437b-bccd-71fd31295da9}; !- HVAC Component

OS:Sizing:Zone,
  {506bf03e-3cd8-4241-b141-69673816138f}, !- Handle
  {08355bf9-142d-437b-bccd-71fd31295da9}, !- Zone or ZoneList Name
  SupplyAirTemperature,                   !- Zone Cooling Design Supply Air Temperature Input Method
  14,                                     !- Zone Cooling Design Supply Air Temperature {C}
  11.11,                                  !- Zone Cooling Design Supply Air Temperature Difference {deltaC}
  SupplyAirTemperature,                   !- Zone Heating Design Supply Air Temperature Input Method
  40,                                     !- Zone Heating Design Supply Air Temperature {C}
  11.11,                                  !- Zone Heating Design Supply Air Temperature Difference {deltaC}
  0.0085,                                 !- Zone Cooling Design Supply Air Humidity Ratio {kg-H2O/kg-air}
  0.008,                                  !- Zone Heating Design Supply Air Humidity Ratio {kg-H2O/kg-air}
  ,                                       !- Zone Heating Sizing Factor
  ,                                       !- Zone Cooling Sizing Factor
  DesignDay,                              !- Cooling Design Air Flow Method
  ,                                       !- Cooling Design Air Flow Rate {m3/s}
  ,                                       !- Cooling Minimum Air Flow per Zone Floor Area {m3/s-m2}
  ,                                       !- Cooling Minimum Air Flow {m3/s}
  ,                                       !- Cooling Minimum Air Flow Fraction
  DesignDay,                              !- Heating Design Air Flow Method
  ,                                       !- Heating Design Air Flow Rate {m3/s}
  ,                                       !- Heating Maximum Air Flow per Zone Floor Area {m3/s-m2}
  ,                                       !- Heating Maximum Air Flow {m3/s}
  ,                                       !- Heating Maximum Air Flow Fraction
  ,                                       !- Design Zone Air Distribution Effectiveness in Cooling Mode
  ,                                       !- Design Zone Air Distribution Effectiveness in Heating Mode
  No,                                     !- Account for Dedicated Outdoor Air System
  NeutralSupplyAir,                       !- Dedicated Outdoor Air System Control Strategy
  autosize,                               !- Dedicated Outdoor Air Low Setpoint Temperature for Design {C}
  autosize;                               !- Dedicated Outdoor Air High Setpoint Temperature for Design {C}

OS:ZoneHVAC:EquipmentList,
  {88ed41b9-5466-4543-8a52-a68510b97606}, !- Handle
  Zone HVAC Equipment List 1,             !- Name
  {08355bf9-142d-437b-bccd-71fd31295da9}, !- Thermal Zone
  SequentialLoad,                         !- Load Distribution Scheme
  {c56bd85c-02d1-47fa-b512-5dd837f2034c}, !- Zone Equipment 1
  1,                                      !- Zone Equipment Cooling Sequence 1
  1,                                      !- Zone Equipment Heating or No-Load Sequence 1
  ,                                       !- Zone Equipment Sequential Cooling Fraction 1
  ;                                       !- Zone Equipment Sequential Heating Fraction 1

OS:ThermalZone,
  {929155cf-f384-4829-a3c4-a55fac0ba5e8}, !- Handle
  garage zone,                            !- Name
  ,                                       !- Multiplier
  ,                                       !- Ceiling Height {m}
  ,                                       !- Volume {m3}
  ,                                       !- Floor Area {m2}
  ,                                       !- Zone Inside Convection Algorithm
  ,                                       !- Zone Outside Convection Algorithm
  ,                                       !- Zone Conditioning Equipment List Name
  {20b0e9a9-0b4b-4f6b-bc23-491ad285566d}, !- Zone Air Inlet Port List
  {7f88cfef-1c73-43ea-bcdd-de8f79fe76ff}, !- Zone Air Exhaust Port List
  {b5eef121-7cbe-4b44-a6fc-18b73fcf42cd}, !- Zone Air Node Name
  {6bed5f82-a021-4137-96fc-9892fd27c211}, !- Zone Return Air Port List
  ,                                       !- Primary Daylighting Control Name
  ,                                       !- Fraction of Zone Controlled by Primary Daylighting Control
  ,                                       !- Secondary Daylighting Control Name
  ,                                       !- Fraction of Zone Controlled by Secondary Daylighting Control
  ,                                       !- Illuminance Map Name
  ,                                       !- Group Rendering Name
  ,                                       !- Thermostat Name
  No;                                     !- Use Ideal Air Loads

OS:Node,
  {92b4ccf0-ed6f-4da2-99be-c49f59e9d74e}, !- Handle
  Node 2,                                 !- Name
  {b5eef121-7cbe-4b44-a6fc-18b73fcf42cd}, !- Inlet Port
  ;                                       !- Outlet Port

OS:Connection,
  {b5eef121-7cbe-4b44-a6fc-18b73fcf42cd}, !- Handle
  {491a0f4d-4b55-4f7d-8422-4a3ecca49f05}, !- Name
  {929155cf-f384-4829-a3c4-a55fac0ba5e8}, !- Source Object
  11,                                     !- Outlet Port
  {92b4ccf0-ed6f-4da2-99be-c49f59e9d74e}, !- Target Object
  2;                                      !- Inlet Port

OS:PortList,
  {20b0e9a9-0b4b-4f6b-bc23-491ad285566d}, !- Handle
  {859ded4d-a27f-4b55-b64b-b2dd0d765578}, !- Name
  {929155cf-f384-4829-a3c4-a55fac0ba5e8}; !- HVAC Component

OS:PortList,
  {7f88cfef-1c73-43ea-bcdd-de8f79fe76ff}, !- Handle
  {ca49fb90-5e75-4468-9d96-b26184ea3d7f}, !- Name
  {929155cf-f384-4829-a3c4-a55fac0ba5e8}; !- HVAC Component

OS:PortList,
  {6bed5f82-a021-4137-96fc-9892fd27c211}, !- Handle
  {6b5b139c-d43a-43ce-9138-01a563780d6c}, !- Name
  {929155cf-f384-4829-a3c4-a55fac0ba5e8}; !- HVAC Component

OS:Sizing:Zone,
  {9eb4320b-11ce-4755-872b-ba0b0d82079d}, !- Handle
  {929155cf-f384-4829-a3c4-a55fac0ba5e8}, !- Zone or ZoneList Name
  SupplyAirTemperature,                   !- Zone Cooling Design Supply Air Temperature Input Method
  14,                                     !- Zone Cooling Design Supply Air Temperature {C}
  11.11,                                  !- Zone Cooling Design Supply Air Temperature Difference {deltaC}
  SupplyAirTemperature,                   !- Zone Heating Design Supply Air Temperature Input Method
  40,                                     !- Zone Heating Design Supply Air Temperature {C}
  11.11,                                  !- Zone Heating Design Supply Air Temperature Difference {deltaC}
  0.0085,                                 !- Zone Cooling Design Supply Air Humidity Ratio {kg-H2O/kg-air}
  0.008,                                  !- Zone Heating Design Supply Air Humidity Ratio {kg-H2O/kg-air}
  ,                                       !- Zone Heating Sizing Factor
  ,                                       !- Zone Cooling Sizing Factor
  DesignDay,                              !- Cooling Design Air Flow Method
  ,                                       !- Cooling Design Air Flow Rate {m3/s}
  ,                                       !- Cooling Minimum Air Flow per Zone Floor Area {m3/s-m2}
  ,                                       !- Cooling Minimum Air Flow {m3/s}
  ,                                       !- Cooling Minimum Air Flow Fraction
  DesignDay,                              !- Heating Design Air Flow Method
  ,                                       !- Heating Design Air Flow Rate {m3/s}
  ,                                       !- Heating Maximum Air Flow per Zone Floor Area {m3/s-m2}
  ,                                       !- Heating Maximum Air Flow {m3/s}
  ,                                       !- Heating Maximum Air Flow Fraction
  ,                                       !- Design Zone Air Distribution Effectiveness in Cooling Mode
  ,                                       !- Design Zone Air Distribution Effectiveness in Heating Mode
  No,                                     !- Account for Dedicated Outdoor Air System
  NeutralSupplyAir,                       !- Dedicated Outdoor Air System Control Strategy
  autosize,                               !- Dedicated Outdoor Air Low Setpoint Temperature for Design {C}
  autosize;                               !- Dedicated Outdoor Air High Setpoint Temperature for Design {C}

OS:ZoneHVAC:EquipmentList,
  {453e8330-d562-478b-b9f4-a031d0aedfb0}, !- Handle
  Zone HVAC Equipment List 2,             !- Name
  {929155cf-f384-4829-a3c4-a55fac0ba5e8}; !- Thermal Zone

OS:Space,
  {8229df7f-31fc-4f6f-82d3-7d1440579a96}, !- Handle
  garage space,                           !- Name
  {5c7b5853-ee4b-4f2d-9144-720160144cf6}, !- Space Type Name
  ,                                       !- Default Construction Set Name
  ,                                       !- Default Schedule Set Name
  -0,                                     !- Direction of Relative North {deg}
  0,                                      !- X Origin {m}
  0,                                      !- Y Origin {m}
  0,                                      !- Z Origin {m}
  ,                                       !- Building Story Name
  {929155cf-f384-4829-a3c4-a55fac0ba5e8}; !- Thermal Zone Name

OS:Surface,
  {487aa2e4-64b9-4950-ab1b-7c54f664e627}, !- Handle
  Surface 1,                              !- Name
  Floor,                                  !- Surface Type
  ,                                       !- Construction Name
  {8229df7f-31fc-4f6f-82d3-7d1440579a96}, !- Space Name
  Foundation,                             !- Outside Boundary Condition
  ,                                       !- Outside Boundary Condition Object
  NoSun,                                  !- Sun Exposure
  NoWind,                                 !- Wind Exposure
  ,                                       !- View Factor to Ground
  ,                                       !- Number of Vertices
  5.57695129776527, -3.048, 0,            !- X,Y,Z Vertex 1 {m}
  5.57695129776527, 3.048, 0,             !- X,Y,Z Vertex 2 {m}
  11.6729512977653, 3.048, 0,             !- X,Y,Z Vertex 3 {m}
  11.6729512977653, -3.048, 0;            !- X,Y,Z Vertex 4 {m}

OS:Surface,
  {340c158c-62a1-4075-9671-5c3dc20605b3}, !- Handle
  Surface 2,                              !- Name
  Wall,                                   !- Surface Type
  ,                                       !- Construction Name
  {8229df7f-31fc-4f6f-82d3-7d1440579a96}, !- Space Name
  Surface,                                !- Outside Boundary Condition
  {e624d09a-2721-4c41-8a51-36ab53d84f0f}, !- Outside Boundary Condition Object
  NoSun,                                  !- Sun Exposure
  NoWind,                                 !- Wind Exposure
  ,                                       !- View Factor to Ground
  ,                                       !- Number of Vertices
  5.57695129776527, 3.048, 2.4384,        !- X,Y,Z Vertex 1 {m}
  5.57695129776527, 3.048, 0,             !- X,Y,Z Vertex 2 {m}
  5.57695129776527, 0, 0,                 !- X,Y,Z Vertex 3 {m}
  5.57695129776527, 0, 2.4384;            !- X,Y,Z Vertex 4 {m}

OS:Surface,
  {03d0c50a-1fb2-4b77-a117-08bd7d326d5c}, !- Handle
  Surface 3,                              !- Name
  Wall,                                   !- Surface Type
  ,                                       !- Construction Name
  {8229df7f-31fc-4f6f-82d3-7d1440579a96}, !- Space Name
  Surface,                                !- Outside Boundary Condition
  {f5effcef-9817-4317-9dfe-e34ad3aa3e58}, !- Outside Boundary Condition Object
  NoSun,                                  !- Sun Exposure
  NoWind,                                 !- Wind Exposure
  ,                                       !- View Factor to Ground
  ,                                       !- Number of Vertices
  11.6729512977653, 3.048, 2.4384,        !- X,Y,Z Vertex 1 {m}
  11.6729512977653, 3.048, 0,             !- X,Y,Z Vertex 2 {m}
  5.57695129776527, 3.048, 0,             !- X,Y,Z Vertex 3 {m}
  5.57695129776527, 3.048, 2.4384;        !- X,Y,Z Vertex 4 {m}

OS:Surface,
  {d72441b8-2e1f-4413-ae62-499c7d69b9dd}, !- Handle
  Surface 4,                              !- Name
  Wall,                                   !- Surface Type
  ,                                       !- Construction Name
  {8229df7f-31fc-4f6f-82d3-7d1440579a96}, !- Space Name
  Outdoors,                               !- Outside Boundary Condition
  ,                                       !- Outside Boundary Condition Object
  SunExposed,                             !- Sun Exposure
  WindExposed,                            !- Wind Exposure
  ,                                       !- View Factor to Ground
  ,                                       !- Number of Vertices
  11.6729512977653, -3.048, 2.4384,       !- X,Y,Z Vertex 1 {m}
  11.6729512977653, -3.048, 0,            !- X,Y,Z Vertex 2 {m}
  11.6729512977653, 3.048, 0,             !- X,Y,Z Vertex 3 {m}
  11.6729512977653, 3.048, 2.4384;        !- X,Y,Z Vertex 4 {m}

OS:Surface,
  {69ed4971-91e1-4e4f-98bf-1d4fec697cde}, !- Handle
  Surface 5,                              !- Name
  Wall,                                   !- Surface Type
  ,                                       !- Construction Name
  {8229df7f-31fc-4f6f-82d3-7d1440579a96}, !- Space Name
  Outdoors,                               !- Outside Boundary Condition
  ,                                       !- Outside Boundary Condition Object
  SunExposed,                             !- Sun Exposure
  WindExposed,                            !- Wind Exposure
  ,                                       !- View Factor to Ground
  ,                                       !- Number of Vertices
  5.57695129776527, -3.048, 2.4384,       !- X,Y,Z Vertex 1 {m}
  5.57695129776527, -3.048, 0,            !- X,Y,Z Vertex 2 {m}
  11.6729512977653, -3.048, 0,            !- X,Y,Z Vertex 3 {m}
  11.6729512977653, -3.048, 2.4384;       !- X,Y,Z Vertex 4 {m}

OS:Surface,
  {c3cd0560-5e49-4a4c-ac2a-b14a2034a5c5}, !- Handle
  Surface 6,                              !- Name
  RoofCeiling,                            !- Surface Type
  ,                                       !- Construction Name
  {8229df7f-31fc-4f6f-82d3-7d1440579a96}, !- Space Name
  Surface,                                !- Outside Boundary Condition
  {480e01fd-64a7-4bdc-ae53-3d56ed2f38f7}, !- Outside Boundary Condition Object
  NoSun,                                  !- Sun Exposure
  NoWind,                                 !- Wind Exposure
  ,                                       !- View Factor to Ground
  ,                                       !- Number of Vertices
  11.6729512977653, -3.048, 2.4384,       !- X,Y,Z Vertex 1 {m}
  11.6729512977653, 3.048, 2.4384,        !- X,Y,Z Vertex 2 {m}
  5.57695129776527, 3.048, 2.4384,        !- X,Y,Z Vertex 3 {m}
  5.57695129776527, -3.048, 2.4384;       !- X,Y,Z Vertex 4 {m}

OS:SpaceType,
  {5c7b5853-ee4b-4f2d-9144-720160144cf6}, !- Handle
  Space Type 1,                           !- Name
  ,                                       !- Default Construction Set Name
  ,                                       !- Default Schedule Set Name
  ,                                       !- Group Rendering Name
  ,                                       !- Design Specification Outdoor Air Object Name
  ,                                       !- Standards Template
  ,                                       !- Standards Building Type
  garage;                                 !- Standards Space Type

OS:Space,
  {bf258cf5-578f-4792-ae07-73ee8b83beb4}, !- Handle
  living space,                           !- Name
  {bb140aac-a718-4db2-be15-29b7adfb20a0}, !- Space Type Name
  ,                                       !- Default Construction Set Name
  ,                                       !- Default Schedule Set Name
  -0,                                     !- Direction of Relative North {deg}
  0,                                      !- X Origin {m}
  0,                                      !- Y Origin {m}
  0,                                      !- Z Origin {m}
  ,                                       !- Building Story Name
  {08355bf9-142d-437b-bccd-71fd31295da9}, !- Thermal Zone Name
  ,                                       !- Part of Total Floor Area
  ,                                       !- Design Specification Outdoor Air Object Name
  {e71d87db-19a7-4b8e-9841-5f8a0f6599fa}; !- Building Unit Name

OS:Surface,
  {85cabd58-b751-4f07-8589-2122b8b00b0f}, !- Handle
  Surface 7,                              !- Name
  Floor,                                  !- Surface Type
  ,                                       !- Construction Name
  {bf258cf5-578f-4792-ae07-73ee8b83beb4}, !- Space Name
  Surface,                                !- Outside Boundary Condition
  {a90396b8-c305-45c8-8509-195431aab2fa}, !- Outside Boundary Condition Object
  NoSun,                                  !- Sun Exposure
  NoWind,                                 !- Wind Exposure
  ,                                       !- View Factor to Ground
  ,                                       !- Number of Vertices
  0, 0, 0,                                !- X,Y,Z Vertex 1 {m}
  0, 5.83647564888264, 0,                 !- X,Y,Z Vertex 2 {m}
  11.6729512977653, 5.83647564888264, 0,  !- X,Y,Z Vertex 3 {m}
  11.6729512977653, 3.048, 0,             !- X,Y,Z Vertex 4 {m}
  5.57695129776527, 3.048, 0,             !- X,Y,Z Vertex 5 {m}
  5.57695129776527, 0, 0;                 !- X,Y,Z Vertex 6 {m}

OS:Surface,
  {b843d727-1c7b-4610-83ab-934f3b3dc1e6}, !- Handle
  Surface 8,                              !- Name
  Wall,                                   !- Surface Type
  ,                                       !- Construction Name
  {bf258cf5-578f-4792-ae07-73ee8b83beb4}, !- Space Name
  Outdoors,                               !- Outside Boundary Condition
  ,                                       !- Outside Boundary Condition Object
  SunExposed,                             !- Sun Exposure
  WindExposed,                            !- Wind Exposure
  ,                                       !- View Factor to Ground
  ,                                       !- Number of Vertices
  0, 5.83647564888264, 2.4384,            !- X,Y,Z Vertex 1 {m}
  0, 5.83647564888264, 0,                 !- X,Y,Z Vertex 2 {m}
  0, 0, 0,                                !- X,Y,Z Vertex 3 {m}
  0, 0, 2.4384;                           !- X,Y,Z Vertex 4 {m}

OS:Surface,
  {4c3eb45c-61a9-4b4f-aa49-c446cbca676f}, !- Handle
  Surface 9,                              !- Name
  Wall,                                   !- Surface Type
  ,                                       !- Construction Name
  {bf258cf5-578f-4792-ae07-73ee8b83beb4}, !- Space Name
  Outdoors,                               !- Outside Boundary Condition
  ,                                       !- Outside Boundary Condition Object
  SunExposed,                             !- Sun Exposure
  WindExposed,                            !- Wind Exposure
  ,                                       !- View Factor to Ground
  ,                                       !- Number of Vertices
  11.6729512977653, 5.83647564888264, 2.4384, !- X,Y,Z Vertex 1 {m}
  11.6729512977653, 5.83647564888264, 0,  !- X,Y,Z Vertex 2 {m}
  0, 5.83647564888264, 0,                 !- X,Y,Z Vertex 3 {m}
  0, 5.83647564888264, 2.4384;            !- X,Y,Z Vertex 4 {m}

OS:Surface,
  {d734bde0-66a0-45a4-a82c-1c64f303e51a}, !- Handle
  Surface 10,                             !- Name
  Wall,                                   !- Surface Type
  ,                                       !- Construction Name
  {bf258cf5-578f-4792-ae07-73ee8b83beb4}, !- Space Name
  Outdoors,                               !- Outside Boundary Condition
  ,                                       !- Outside Boundary Condition Object
  SunExposed,                             !- Sun Exposure
  WindExposed,                            !- Wind Exposure
  ,                                       !- View Factor to Ground
  ,                                       !- Number of Vertices
  11.6729512977653, 3.048, 2.4384,        !- X,Y,Z Vertex 1 {m}
  11.6729512977653, 3.048, 0,             !- X,Y,Z Vertex 2 {m}
  11.6729512977653, 5.83647564888264, 0,  !- X,Y,Z Vertex 3 {m}
  11.6729512977653, 5.83647564888264, 2.4384; !- X,Y,Z Vertex 4 {m}

OS:Surface,
  {f5effcef-9817-4317-9dfe-e34ad3aa3e58}, !- Handle
  Surface 11,                             !- Name
  Wall,                                   !- Surface Type
  ,                                       !- Construction Name
  {bf258cf5-578f-4792-ae07-73ee8b83beb4}, !- Space Name
  Surface,                                !- Outside Boundary Condition
  {03d0c50a-1fb2-4b77-a117-08bd7d326d5c}, !- Outside Boundary Condition Object
  NoSun,                                  !- Sun Exposure
  NoWind,                                 !- Wind Exposure
  ,                                       !- View Factor to Ground
  ,                                       !- Number of Vertices
  5.57695129776527, 3.048, 2.4384,        !- X,Y,Z Vertex 1 {m}
  5.57695129776527, 3.048, 0,             !- X,Y,Z Vertex 2 {m}
  11.6729512977653, 3.048, 0,             !- X,Y,Z Vertex 3 {m}
  11.6729512977653, 3.048, 2.4384;        !- X,Y,Z Vertex 4 {m}

OS:Surface,
  {e624d09a-2721-4c41-8a51-36ab53d84f0f}, !- Handle
  Surface 12,                             !- Name
  Wall,                                   !- Surface Type
  ,                                       !- Construction Name
  {bf258cf5-578f-4792-ae07-73ee8b83beb4}, !- Space Name
  Surface,                                !- Outside Boundary Condition
  {340c158c-62a1-4075-9671-5c3dc20605b3}, !- Outside Boundary Condition Object
  NoSun,                                  !- Sun Exposure
  NoWind,                                 !- Wind Exposure
  ,                                       !- View Factor to Ground
  ,                                       !- Number of Vertices
  5.57695129776527, 0, 2.4384,            !- X,Y,Z Vertex 1 {m}
  5.57695129776527, 0, 0,                 !- X,Y,Z Vertex 2 {m}
  5.57695129776527, 3.048, 0,             !- X,Y,Z Vertex 3 {m}
  5.57695129776527, 3.048, 2.4384;        !- X,Y,Z Vertex 4 {m}

OS:Surface,
  {adab0f0e-f398-4fd3-ba92-5a778ecd7089}, !- Handle
  Surface 13,                             !- Name
  Wall,                                   !- Surface Type
  ,                                       !- Construction Name
  {bf258cf5-578f-4792-ae07-73ee8b83beb4}, !- Space Name
  Outdoors,                               !- Outside Boundary Condition
  ,                                       !- Outside Boundary Condition Object
  SunExposed,                             !- Sun Exposure
  WindExposed,                            !- Wind Exposure
  ,                                       !- View Factor to Ground
  ,                                       !- Number of Vertices
  0, 0, 2.4384,                           !- X,Y,Z Vertex 1 {m}
  0, 0, 0,                                !- X,Y,Z Vertex 2 {m}
  5.57695129776527, 0, 0,                 !- X,Y,Z Vertex 3 {m}
  5.57695129776527, 0, 2.4384;            !- X,Y,Z Vertex 4 {m}

OS:Surface,
  {04be16a8-c191-4b45-903a-a7a82b265018}, !- Handle
  Surface 14,                             !- Name
  RoofCeiling,                            !- Surface Type
  ,                                       !- Construction Name
  {bf258cf5-578f-4792-ae07-73ee8b83beb4}, !- Space Name
  Surface,                                !- Outside Boundary Condition
  {dee274d4-b72e-4dfa-b88b-b0281693526f}, !- Outside Boundary Condition Object
  NoSun,                                  !- Sun Exposure
  NoWind,                                 !- Wind Exposure
  ,                                       !- View Factor to Ground
  ,                                       !- Number of Vertices
  5.57695129776527, 0, 2.4384,            !- X,Y,Z Vertex 1 {m}
  5.57695129776527, 3.048, 2.4384,        !- X,Y,Z Vertex 2 {m}
  11.6729512977653, 3.048, 2.4384,        !- X,Y,Z Vertex 3 {m}
  11.6729512977653, 5.83647564888264, 2.4384, !- X,Y,Z Vertex 4 {m}
  0, 5.83647564888264, 2.4384,            !- X,Y,Z Vertex 5 {m}
  0, 0, 2.4384;                           !- X,Y,Z Vertex 6 {m}

OS:SpaceType,
  {bb140aac-a718-4db2-be15-29b7adfb20a0}, !- Handle
  Space Type 2,                           !- Name
  ,                                       !- Default Construction Set Name
  ,                                       !- Default Schedule Set Name
  ,                                       !- Group Rendering Name
  ,                                       !- Design Specification Outdoor Air Object Name