!- NOTE: Auto-generated from /test/osw_files/SFD_2000sqft_2story_FB_UA_Denver_GSHPVertBore.osw

OS:Version,
  {a748069f-6f19-4f20-95bd-2a653e6a6ad2}, !- Handle
  2.8.0;                                  !- Version Identifier

OS:SimulationControl,
  {32cb788c-6f1f-4175-9271-12125f0caf53}, !- Handle
  ,                                       !- Do Zone Sizing Calculation
  ,                                       !- Do System Sizing Calculation
  ,                                       !- Do Plant Sizing Calculation
  No;                                     !- Run Simulation for Sizing Periods

OS:Timestep,
  {b30eaac9-2ae0-4bd7-aa44-68bd2a6ead60}, !- Handle
  6;                                      !- Number of Timesteps per Hour

OS:ShadowCalculation,
  {e90f0b3b-088a-4078-933b-68cb15082dfc}, !- Handle
  20,                                     !- Calculation Frequency
  200;                                    !- Maximum Figures in Shadow Overlap Calculations

OS:SurfaceConvectionAlgorithm:Outside,
  {2e61f2c3-146a-4417-8ccb-eeb83394463b}, !- Handle
  DOE-2;                                  !- Algorithm

OS:SurfaceConvectionAlgorithm:Inside,
  {cd491f4b-80c5-419f-a092-fb0a30e52997}, !- Handle
  TARP;                                   !- Algorithm

OS:ZoneCapacitanceMultiplier:ResearchSpecial,
  {5f97bf78-a8e1-4b62-b4f8-efe5f55e62ba}, !- Handle
  ,                                       !- Temperature Capacity Multiplier
  15,                                     !- Humidity Capacity Multiplier
  ;                                       !- Carbon Dioxide Capacity Multiplier

OS:RunPeriod,
  {d7cb9c75-0438-48df-af92-be9fcddd0557}, !- Handle
  Run Period 1,                           !- Name
  1,                                      !- Begin Month
  1,                                      !- Begin Day of Month
  12,                                     !- End Month
  31,                                     !- End Day of Month
  ,                                       !- Use Weather File Holidays and Special Days
  ,                                       !- Use Weather File Daylight Saving Period
  ,                                       !- Apply Weekend Holiday Rule
  ,                                       !- Use Weather File Rain Indicators
  ,                                       !- Use Weather File Snow Indicators
  ;                                       !- Number of Times Runperiod to be Repeated

OS:ThermalZone,
  {dfc5a62b-2cf9-4ac2-a759-91a8f073be6f}, !- Handle
  living zone,                            !- Name
  ,                                       !- Multiplier
  ,                                       !- Ceiling Height {m}
  ,                                       !- Volume {m3}
  ,                                       !- Floor Area {m2}
  ,                                       !- Zone Inside Convection Algorithm
  ,                                       !- Zone Outside Convection Algorithm
  ,                                       !- Zone Conditioning Equipment List Name
  {0a7e1878-198e-47fd-af13-9cf65581b33a}, !- Zone Air Inlet Port List
  {e1e55f76-29ff-4df9-b97c-7617db70fe4a}, !- Zone Air Exhaust Port List
  {c84ab09d-047d-4936-a4e4-d3b2ff5f187d}, !- Zone Air Node Name
  {39da2fbb-5755-4103-a7fa-9633b3d52edd}, !- Zone Return Air Port List
  ,                                       !- Primary Daylighting Control Name
  ,                                       !- Fraction of Zone Controlled by Primary Daylighting Control
  ,                                       !- Secondary Daylighting Control Name
  ,                                       !- Fraction of Zone Controlled by Secondary Daylighting Control
  ,                                       !- Illuminance Map Name
  ,                                       !- Group Rendering Name
  {62c7aa41-b075-49c5-ad47-83756bd0e896}, !- Thermostat Name
  No;                                     !- Use Ideal Air Loads

OS:Node,
  {93300632-0146-407c-8b6b-fc64ebcd936a}, !- Handle
  Node 1,                                 !- Name
  {c84ab09d-047d-4936-a4e4-d3b2ff5f187d}, !- Inlet Port
  ;                                       !- Outlet Port

OS:Connection,
  {c84ab09d-047d-4936-a4e4-d3b2ff5f187d}, !- Handle
  {f9dd0cfd-a549-4543-ba22-d67c17d06cc1}, !- Name
  {dfc5a62b-2cf9-4ac2-a759-91a8f073be6f}, !- Source Object
  11,                                     !- Outlet Port
  {93300632-0146-407c-8b6b-fc64ebcd936a}, !- Target Object
  2;                                      !- Inlet Port

OS:PortList,
  {0a7e1878-198e-47fd-af13-9cf65581b33a}, !- Handle
  {f6b952d4-9d36-435d-ad93-7e3336ebd5df}, !- Name
  {dfc5a62b-2cf9-4ac2-a759-91a8f073be6f}, !- HVAC Component
  {ec31b256-ce01-4b4e-ab4a-5e905c22c481}, !- Port 1
  {6a9ee806-64d7-49e3-b788-12a8b6db75cd}; !- Port 2

OS:PortList,
  {e1e55f76-29ff-4df9-b97c-7617db70fe4a}, !- Handle
  {18a4ea25-4878-4a9e-af5f-a389dc9067c4}, !- Name
  {dfc5a62b-2cf9-4ac2-a759-91a8f073be6f}; !- HVAC Component

OS:PortList,
  {39da2fbb-5755-4103-a7fa-9633b3d52edd}, !- Handle
  {f4a68bbd-b00d-45e2-98c1-020a4810f4e9}, !- Name
  {dfc5a62b-2cf9-4ac2-a759-91a8f073be6f}, !- HVAC Component
  {d1a5de12-b0bb-4f0f-952b-3d95314e4838}, !- Port 1
  {a8b7fcb0-ed17-40b2-8529-a46cbfab97c0}; !- Port 2

OS:Sizing:Zone,
  {3f513229-88e3-4206-818a-c9932f99da35}, !- Handle
  {dfc5a62b-2cf9-4ac2-a759-91a8f073be6f}, !- Zone or ZoneList Name
  SupplyAirTemperature,                   !- Zone Cooling Design Supply Air Temperature Input Method
  14,                                     !- Zone Cooling Design Supply Air Temperature {C}
  11.11,                                  !- Zone Cooling Design Supply Air Temperature Difference {deltaC}
  SupplyAirTemperature,                   !- Zone Heating Design Supply Air Temperature Input Method
  40,                                     !- Zone Heating Design Supply Air Temperature {C}
  11.11,                                  !- Zone Heating Design Supply Air Temperature Difference {deltaC}
  0.0085,                                 !- Zone Cooling Design Supply Air Humidity Ratio {kg-H2O/kg-air}
  0.008,                                  !- Zone Heating Design Supply Air Humidity Ratio {kg-H2O/kg-air}
  ,                                       !- Zone Heating Sizing Factor
  ,                                       !- Zone Cooling Sizing Factor
  DesignDay,                              !- Cooling Design Air Flow Method
  ,                                       !- Cooling Design Air Flow Rate {m3/s}
  ,                                       !- Cooling Minimum Air Flow per Zone Floor Area {m3/s-m2}
  ,                                       !- Cooling Minimum Air Flow {m3/s}
  ,                                       !- Cooling Minimum Air Flow Fraction
  DesignDay,                              !- Heating Design Air Flow Method
  ,                                       !- Heating Design Air Flow Rate {m3/s}
  ,                                       !- Heating Maximum Air Flow per Zone Floor Area {m3/s-m2}
  ,                                       !- Heating Maximum Air Flow {m3/s}
  ,                                       !- Heating Maximum Air Flow Fraction
  ,                                       !- Design Zone Air Distribution Effectiveness in Cooling Mode
  ,                                       !- Design Zone Air Distribution Effectiveness in Heating Mode
  No,                                     !- Account for Dedicated Outdoor Air System
  NeutralSupplyAir,                       !- Dedicated Outdoor Air System Control Strategy
  autosize,                               !- Dedicated Outdoor Air Low Setpoint Temperature for Design {C}
  autosize;                               !- Dedicated Outdoor Air High Setpoint Temperature for Design {C}

OS:ZoneHVAC:EquipmentList,
  {5ba6bf8f-a0c0-4685-ba37-681ad810346b}, !- Handle
  Zone HVAC Equipment List 1,             !- Name
  {dfc5a62b-2cf9-4ac2-a759-91a8f073be6f}, !- Thermal Zone
  SequentialLoad,                         !- Load Distribution Scheme
  {dd70d34e-ba45-4faa-9955-402ccb098213}, !- Zone Equipment 1
  1,                                      !- Zone Equipment Cooling Sequence 1
  1,                                      !- Zone Equipment Heating or No-Load Sequence 1
  ,                                       !- Zone Equipment Sequential Cooling Fraction 1
  ,                                       !- Zone Equipment Sequential Heating Fraction 1
  {fdcf26a9-243b-45b5-99de-8d27f3c678b4}, !- Zone Equipment 2
  2,                                      !- Zone Equipment Cooling Sequence 2
  2,                                      !- Zone Equipment Heating or No-Load Sequence 2
  ,                                       !- Zone Equipment Sequential Cooling Fraction 2
  ;                                       !- Zone Equipment Sequential Heating Fraction 2

OS:ThermalZone,
  {78b55688-8642-4767-accb-2002a03a618f}, !- Handle
  garage zone,                            !- Name
  ,                                       !- Multiplier
  ,                                       !- Ceiling Height {m}
  ,                                       !- Volume {m3}
  ,                                       !- Floor Area {m2}
  ,                                       !- Zone Inside Convection Algorithm
  ,                                       !- Zone Outside Convection Algorithm
  ,                                       !- Zone Conditioning Equipment List Name
  {928fc33a-f223-4108-b077-c215fb9ba0ed}, !- Zone Air Inlet Port List
  {7d7ebb62-2d36-43ac-bbe5-39017ee4be2f}, !- Zone Air Exhaust Port List
  {55042270-ae2c-43f2-abc5-964ee643f3c5}, !- Zone Air Node Name
  {915d89c2-33de-4745-96d7-231e31c3771f}, !- Zone Return Air Port List
  ,                                       !- Primary Daylighting Control Name
  ,                                       !- Fraction of Zone Controlled by Primary Daylighting Control
  ,                                       !- Secondary Daylighting Control Name
  ,                                       !- Fraction of Zone Controlled by Secondary Daylighting Control
  ,                                       !- Illuminance Map Name
  ,                                       !- Group Rendering Name
  ,                                       !- Thermostat Name
  No;                                     !- Use Ideal Air Loads

OS:Node,
  {9fd0dd3c-9514-4b0b-afa2-af61bcf6cb99}, !- Handle
  Node 2,                                 !- Name
  {55042270-ae2c-43f2-abc5-964ee643f3c5}, !- Inlet Port
  ;                                       !- Outlet Port

OS:Connection,
  {55042270-ae2c-43f2-abc5-964ee643f3c5}, !- Handle
  {5f89a04f-8255-4ad1-a818-6b3e25654444}, !- Name
  {78b55688-8642-4767-accb-2002a03a618f}, !- Source Object
  11,                                     !- Outlet Port
  {9fd0dd3c-9514-4b0b-afa2-af61bcf6cb99}, !- Target Object
  2;                                      !- Inlet Port

OS:PortList,
  {928fc33a-f223-4108-b077-c215fb9ba0ed}, !- Handle
  {a8e47242-d159-4e29-9ac4-1287dbb6ca96}, !- Name
  {78b55688-8642-4767-accb-2002a03a618f}; !- HVAC Component

OS:PortList,
  {7d7ebb62-2d36-43ac-bbe5-39017ee4be2f}, !- Handle
  {a4578a6d-b7c5-4ed6-8c63-0977520b47d8}, !- Name
  {78b55688-8642-4767-accb-2002a03a618f}; !- HVAC Component

OS:PortList,
  {915d89c2-33de-4745-96d7-231e31c3771f}, !- Handle
  {0ada9213-2bce-4286-a098-5bab8b1820a8}, !- Name
  {78b55688-8642-4767-accb-2002a03a618f}; !- HVAC Component

OS:Sizing:Zone,
  {a470c913-fb27-4b09-a194-423fa33fcbf0}, !- Handle
  {78b55688-8642-4767-accb-2002a03a618f}, !- Zone or ZoneList Name
  SupplyAirTemperature,                   !- Zone Cooling Design Supply Air Temperature Input Method
  14,                                     !- Zone Cooling Design Supply Air Temperature {C}
  11.11,                                  !- Zone Cooling Design Supply Air Temperature Difference {deltaC}
  SupplyAirTemperature,                   !- Zone Heating Design Supply Air Temperature Input Method
  40,                                     !- Zone Heating Design Supply Air Temperature {C}
  11.11,                                  !- Zone Heating Design Supply Air Temperature Difference {deltaC}
  0.0085,                                 !- Zone Cooling Design Supply Air Humidity Ratio {kg-H2O/kg-air}
  0.008,                                  !- Zone Heating Design Supply Air Humidity Ratio {kg-H2O/kg-air}
  ,                                       !- Zone Heating Sizing Factor
  ,                                       !- Zone Cooling Sizing Factor
  DesignDay,                              !- Cooling Design Air Flow Method
  ,                                       !- Cooling Design Air Flow Rate {m3/s}
  ,                                       !- Cooling Minimum Air Flow per Zone Floor Area {m3/s-m2}
  ,                                       !- Cooling Minimum Air Flow {m3/s}
  ,                                       !- Cooling Minimum Air Flow Fraction
  DesignDay,                              !- Heating Design Air Flow Method
  ,                                       !- Heating Design Air Flow Rate {m3/s}
  ,                                       !- Heating Maximum Air Flow per Zone Floor Area {m3/s-m2}
  ,                                       !- Heating Maximum Air Flow {m3/s}
  ,                                       !- Heating Maximum Air Flow Fraction
  ,                                       !- Design Zone Air Distribution Effectiveness in Cooling Mode
  ,                                       !- Design Zone Air Distribution Effectiveness in Heating Mode
  No,                                     !- Account for Dedicated Outdoor Air System
  NeutralSupplyAir,                       !- Dedicated Outdoor Air System Control Strategy
  autosize,                               !- Dedicated Outdoor Air Low Setpoint Temperature for Design {C}
  autosize;                               !- Dedicated Outdoor Air High Setpoint Temperature for Design {C}

OS:ZoneHVAC:EquipmentList,
  {6d22d3cb-4459-4a56-b390-46ec16420cc1}, !- Handle
  Zone HVAC Equipment List 2,             !- Name
  {78b55688-8642-4767-accb-2002a03a618f}; !- Thermal Zone

OS:Space,
  {65435033-dcb1-42ad-831b-d93b6114ddbc}, !- Handle
  garage space,                           !- Name
  {172d7820-9365-4a13-9b2e-23480182cdc9}, !- Space Type Name
  ,                                       !- Default Construction Set Name
  ,                                       !- Default Schedule Set Name
  -0,                                     !- Direction of Relative North {deg}
  0,                                      !- X Origin {m}
  0,                                      !- Y Origin {m}
  0,                                      !- Z Origin {m}
  ,                                       !- Building Story Name
  {78b55688-8642-4767-accb-2002a03a618f}; !- Thermal Zone Name

OS:Surface,
  {4325e654-1a0f-4170-9cb7-67222ed47dc1}, !- Handle
  Surface 1,                              !- Name
  Floor,                                  !- Surface Type
  ,                                       !- Construction Name
  {65435033-dcb1-42ad-831b-d93b6114ddbc}, !- Space Name
  Foundation,                             !- Outside Boundary Condition
  ,                                       !- Outside Boundary Condition Object
  NoSun,                                  !- Sun Exposure
  NoWind,                                 !- Wind Exposure
  ,                                       !- View Factor to Ground
  ,                                       !- Number of Vertices
  5.57695129776527, -3.048, 0,            !- X,Y,Z Vertex 1 {m}
  5.57695129776527, 3.048, 0,             !- X,Y,Z Vertex 2 {m}
  11.6729512977653, 3.048, 0,             !- X,Y,Z Vertex 3 {m}
  11.6729512977653, -3.048, 0;            !- X,Y,Z Vertex 4 {m}

OS:Surface,
  {75201abd-6f40-4e16-b195-69813e7c82de}, !- Handle
  Surface 2,                              !- Name
  Wall,                                   !- Surface Type
  ,                                       !- Construction Name
  {65435033-dcb1-42ad-831b-d93b6114ddbc}, !- Space Name
  Surface,                                !- Outside Boundary Condition
  {65cc7e91-1352-48f2-b77e-6b14d989f94d}, !- Outside Boundary Condition Object
  NoSun,                                  !- Sun Exposure
  NoWind,                                 !- Wind Exposure
  ,                                       !- View Factor to Ground
  ,                                       !- Number of Vertices
  5.57695129776527, 3.048, 2.4384,        !- X,Y,Z Vertex 1 {m}
  5.57695129776527, 3.048, 0,             !- X,Y,Z Vertex 2 {m}
  5.57695129776527, 0, 0,                 !- X,Y,Z Vertex 3 {m}
  5.57695129776527, 0, 2.4384;            !- X,Y,Z Vertex 4 {m}

OS:Surface,
  {f8f932c1-7b23-459c-9262-f5761b27cfcb}, !- Handle
  Surface 3,                              !- Name
  Wall,                                   !- Surface Type
  ,                                       !- Construction Name
  {65435033-dcb1-42ad-831b-d93b6114ddbc}, !- Space Name
  Surface,                                !- Outside Boundary Condition
  {4bb067d1-5877-4f5f-a415-355e8fa689bc}, !- Outside Boundary Condition Object
  NoSun,                                  !- Sun Exposure
  NoWind,                                 !- Wind Exposure
  ,                                       !- View Factor to Ground
  ,                                       !- Number of Vertices
  11.6729512977653, 3.048, 2.4384,        !- X,Y,Z Vertex 1 {m}
  11.6729512977653, 3.048, 0,             !- X,Y,Z Vertex 2 {m}
  5.57695129776527, 3.048, 0,             !- X,Y,Z Vertex 3 {m}
  5.57695129776527, 3.048, 2.4384;        !- X,Y,Z Vertex 4 {m}

OS:Surface,
  {e7a7e751-893f-4c7e-841b-48eea6fb00b2}, !- Handle
  Surface 4,                              !- Name
  Wall,                                   !- Surface Type
  ,                                       !- Construction Name
  {65435033-dcb1-42ad-831b-d93b6114ddbc}, !- Space Name
  Outdoors,                               !- Outside Boundary Condition
  ,                                       !- Outside Boundary Condition Object
  SunExposed,                             !- Sun Exposure
  WindExposed,                            !- Wind Exposure
  ,                                       !- View Factor to Ground
  ,                                       !- Number of Vertices
  11.6729512977653, -3.048, 2.4384,       !- X,Y,Z Vertex 1 {m}
  11.6729512977653, -3.048, 0,            !- X,Y,Z Vertex 2 {m}
  11.6729512977653, 3.048, 0,             !- X,Y,Z Vertex 3 {m}
  11.6729512977653, 3.048, 2.4384;        !- X,Y,Z Vertex 4 {m}

OS:Surface,
  {7505b5b5-ed7e-4f60-a594-30426de2cd1b}, !- Handle
  Surface 5,                              !- Name
  Wall,                                   !- Surface Type
  ,                                       !- Construction Name
  {65435033-dcb1-42ad-831b-d93b6114ddbc}, !- Space Name
  Outdoors,                               !- Outside Boundary Condition
  ,                                       !- Outside Boundary Condition Object
  SunExposed,                             !- Sun Exposure
  WindExposed,                            !- Wind Exposure
  ,                                       !- View Factor to Ground
  ,                                       !- Number of Vertices
  5.57695129776527, -3.048, 2.4384,       !- X,Y,Z Vertex 1 {m}
  5.57695129776527, -3.048, 0,            !- X,Y,Z Vertex 2 {m}
  11.6729512977653, -3.048, 0,            !- X,Y,Z Vertex 3 {m}
  11.6729512977653, -3.048, 2.4384;       !- X,Y,Z Vertex 4 {m}

OS:Surface,
  {2807ca7b-dcbb-4441-a2a3-927afb672532}, !- Handle
  Surface 6,                              !- Name
  RoofCeiling,                            !- Surface Type
  ,                                       !- Construction Name
  {65435033-dcb1-42ad-831b-d93b6114ddbc}, !- Space Name
  Surface,                                !- Outside Boundary Condition
  {90b16cf5-c9e3-45f9-a877-6cc9f32b337d}, !- Outside Boundary Condition Object
  NoSun,                                  !- Sun Exposure
  NoWind,                                 !- Wind Exposure
  ,                                       !- View Factor to Ground
  ,                                       !- Number of Vertices
  11.6729512977653, -3.048, 2.4384,       !- X,Y,Z Vertex 1 {m}
  11.6729512977653, 3.048, 2.4384,        !- X,Y,Z Vertex 2 {m}
  5.57695129776527, 3.048, 2.4384,        !- X,Y,Z Vertex 3 {m}
  5.57695129776527, -3.048, 2.4384;       !- X,Y,Z Vertex 4 {m}

OS:SpaceType,
  {172d7820-9365-4a13-9b2e-23480182cdc9}, !- Handle
  Space Type 1,                           !- Name
  ,                                       !- Default Construction Set Name
  ,                                       !- Default Schedule Set Name
  ,                                       !- Group Rendering Name
  ,                                       !- Design Specification Outdoor Air Object Name
  ,                                       !- Standards Template
  ,                                       !- Standards Building Type
  garage;                                 !- Standards Space Type

OS:Space,
  {b5ed371c-a6db-4e58-b2b5-37239d3ab85e}, !- Handle
  living space,                           !- Name
  {74852c72-0424-4850-a01f-eff05c554028}, !- Space Type Name
  ,                                       !- Default Construction Set Name
  ,                                       !- Default Schedule Set Name
  -0,                                     !- Direction of Relative North {deg}
  0,                                      !- X Origin {m}
  0,                                      !- Y Origin {m}
  0,                                      !- Z Origin {m}
  ,                                       !- Building Story Name
  {dfc5a62b-2cf9-4ac2-a759-91a8f073be6f}, !- Thermal Zone Name
  ,                                       !- Part of Total Floor Area
  ,                                       !- Design Specification Outdoor Air Object Name
  {2994f09a-e869-41e3-b46f-c8bc7d2062df}; !- Building Unit Name

OS:Surface,
  {4e3e147c-78dc-460f-b1ea-1d03a3aa6661}, !- Handle
  Surface 7,                              !- Name
  Floor,                                  !- Surface Type
  ,                                       !- Construction Name
  {b5ed371c-a6db-4e58-b2b5-37239d3ab85e}, !- Space Name
  Surface,                                !- Outside Boundary Condition
  {b5063800-e93d-44ca-9f10-3742e8761a1d}, !- Outside Boundary Condition Object
  NoSun,                                  !- Sun Exposure
  NoWind,                                 !- Wind Exposure
  ,                                       !- View Factor to Ground
  ,                                       !- Number of Vertices
  0, 0, 0,                                !- X,Y,Z Vertex 1 {m}
  0, 5.83647564888264, 0,                 !- X,Y,Z Vertex 2 {m}
  11.6729512977653, 5.83647564888264, 0,  !- X,Y,Z Vertex 3 {m}
  11.6729512977653, 3.048, 0,             !- X,Y,Z Vertex 4 {m}
  5.57695129776527, 3.048, 0,             !- X,Y,Z Vertex 5 {m}
  5.57695129776527, 0, 0;                 !- X,Y,Z Vertex 6 {m}

OS:Surface,
  {3c3ed0d2-84f7-42cb-ae73-067b72958893}, !- Handle
  Surface 8,                              !- Name
  Wall,                                   !- Surface Type
  ,                                       !- Construction Name
  {b5ed371c-a6db-4e58-b2b5-37239d3ab85e}, !- Space Name
  Outdoors,                               !- Outside Boundary Condition
  ,                                       !- Outside Boundary Condition Object
  SunExposed,                             !- Sun Exposure
  WindExposed,                            !- Wind Exposure
  ,                                       !- View Factor to Ground
  ,                                       !- Number of Vertices
  0, 5.83647564888264, 2.4384,            !- X,Y,Z Vertex 1 {m}
  0, 5.83647564888264, 0,                 !- X,Y,Z Vertex 2 {m}
  0, 0, 0,                                !- X,Y,Z Vertex 3 {m}
  0, 0, 2.4384;                           !- X,Y,Z Vertex 4 {m}

OS:Surface,
  {cfc2c86b-66d6-4ce8-bbbc-cf5ce6338ff2}, !- Handle
  Surface 9,                              !- Name
  Wall,                                   !- Surface Type
  ,                                       !- Construction Name
  {b5ed371c-a6db-4e58-b2b5-37239d3ab85e}, !- Space Name
  Outdoors,                               !- Outside Boundary Condition
  ,                                       !- Outside Boundary Condition Object
  SunExposed,                             !- Sun Exposure
  WindExposed,                            !- Wind Exposure
  ,                                       !- View Factor to Ground
  ,                                       !- Number of Vertices
  11.6729512977653, 5.83647564888264, 2.4384, !- X,Y,Z Vertex 1 {m}
  11.6729512977653, 5.83647564888264, 0,  !- X,Y,Z Vertex 2 {m}
  0, 5.83647564888264, 0,                 !- X,Y,Z Vertex 3 {m}
  0, 5.83647564888264, 2.4384;            !- X,Y,Z Vertex 4 {m}

OS:Surface,
  {20f19b85-6585-43f5-bd71-d6f9f7028d8f}, !- Handle
  Surface 10,                             !- Name
  Wall,                                   !- Surface Type
  ,                                       !- Construction Name
  {b5ed371c-a6db-4e58-b2b5-37239d3ab85e}, !- Space Name
  Outdoors,                               !- Outside Boundary Condition
  ,                                       !- Outside Boundary Condition Object
  SunExposed,                             !- Sun Exposure
  WindExposed,                            !- Wind Exposure
  ,                                       !- View Factor to Ground
  ,                                       !- Number of Vertices
  11.6729512977653, 3.048, 2.4384,        !- X,Y,Z Vertex 1 {m}
  11.6729512977653, 3.048, 0,             !- X,Y,Z Vertex 2 {m}
  11.6729512977653, 5.83647564888264, 0,  !- X,Y,Z Vertex 3 {m}
  11.6729512977653, 5.83647564888264, 2.4384; !- X,Y,Z Vertex 4 {m}

OS:Surface,
  {4bb067d1-5877-4f5f-a415-355e8fa689bc}, !- Handle
  Surface 11,                             !- Name
  Wall,                                   !- Surface Type
  ,                                       !- Construction Name
  {b5ed371c-a6db-4e58-b2b5-37239d3ab85e}, !- Space Name
  Surface,                                !- Outside Boundary Condition
  {f8f932c1-7b23-459c-9262-f5761b27cfcb}, !- Outside Boundary Condition Object
  NoSun,                                  !- Sun Exposure
  NoWind,                                 !- Wind Exposure
  ,                                       !- View Factor to Ground
  ,                                       !- Number of Vertices
  5.57695129776527, 3.048, 2.4384,        !- X,Y,Z Vertex 1 {m}
  5.57695129776527, 3.048, 0,             !- X,Y,Z Vertex 2 {m}
  11.6729512977653, 3.048, 0,             !- X,Y,Z Vertex 3 {m}
  11.6729512977653, 3.048, 2.4384;        !- X,Y,Z Vertex 4 {m}

OS:Surface,
  {65cc7e91-1352-48f2-b77e-6b14d989f94d}, !- Handle
  Surface 12,                             !- Name
  Wall,                                   !- Surface Type
  ,                                       !- Construction Name
  {b5ed371c-a6db-4e58-b2b5-37239d3ab85e}, !- Space Name
  Surface,                                !- Outside Boundary Condition
  {75201abd-6f40-4e16-b195-69813e7c82de}, !- Outside Boundary Condition Object
  NoSun,                                  !- Sun Exposure
  NoWind,                                 !- Wind Exposure
  ,                                       !- View Factor to Ground
  ,                                       !- Number of Vertices
  5.57695129776527, 0, 2.4384,            !- X,Y,Z Vertex 1 {m}
  5.57695129776527, 0, 0,                 !- X,Y,Z Vertex 2 {m}
  5.57695129776527, 3.048, 0,             !- X,Y,Z Vertex 3 {m}
  5.57695129776527, 3.048, 2.4384;        !- X,Y,Z Vertex 4 {m}

OS:Surface,
  {58a4de09-d239-4138-88d6-72e50529537e}, !- Handle
  Surface 13,                             !- Name
  Wall,                                   !- Surface Type
  ,                                       !- Construction Name
  {b5ed371c-a6db-4e58-b2b5-37239d3ab85e}, !- Space Name
  Outdoors,                               !- Outside Boundary Condition
  ,                                       !- Outside Boundary Condition Object
  SunExposed,                             !- Sun Exposure
  WindExposed,                            !- Wind Exposure
  ,                                       !- View Factor to Ground
  ,                                       !- Number of Vertices
  0, 0, 2.4384,                           !- X,Y,Z Vertex 1 {m}
  0, 0, 0,                                !- X,Y,Z Vertex 2 {m}
  5.57695129776527, 0, 0,                 !- X,Y,Z Vertex 3 {m}
  5.57695129776527, 0, 2.4384;            !- X,Y,Z Vertex 4 {m}

OS:Surface,
  {a8a90946-fbcc-4734-99c8-183b95b96051}, !- Handle
  Surface 14,                             !- Name
  RoofCeiling,                            !- Surface Type
  ,                                       !- Construction Name
  {b5ed371c-a6db-4e58-b2b5-37239d3ab85e}, !- Space Name
  Surface,                                !- Outside Boundary Condition
  {919c0e94-158b-47db-9208-a266486ed677}, !- Outside Boundary Condition Object
  NoSun,                                  !- Sun Exposure
  NoWind,                                 !- Wind Exposure
  ,                                       !- View Factor to Ground
  ,                                       !- Number of Vertices
  5.57695129776527, 0, 2.4384,            !- X,Y,Z Vertex 1 {m}
  5.57695129776527, 3.048, 2.4384,        !- X,Y,Z Vertex 2 {m}
  11.6729512977653, 3.048, 2.4384,        !- X,Y,Z Vertex 3 {m}
  11.6729512977653, 5.83647564888264, 2.4384, !- X,Y,Z Vertex 4 {m}
  0, 5.83647564888264, 2.4384,            !- X,Y,Z Vertex 5 {m}
  0, 0, 2.4384;                           !- X,Y,Z Vertex 6 {m}

OS:SpaceType,
  {74852c72-0424-4850-a01f-eff05c554028}, !- Handle