!- NOTE: Auto-generated from /test/osw_files/SFD_2000sqft_2story_FB_UA_Denver_Furnace.osw

OS:Version,
  {80f7d959-fcb4-4679-99e0-28c33696d003}, !- Handle
  2.9.0;                                  !- Version Identifier

OS:SimulationControl,
  {6006fe3c-88b3-4bf6-965f-f406c786b58a}, !- Handle
  ,                                       !- Do Zone Sizing Calculation
  ,                                       !- Do System Sizing Calculation
  ,                                       !- Do Plant Sizing Calculation
  No;                                     !- Run Simulation for Sizing Periods

OS:Timestep,
  {127b9f7e-ae74-447c-9f50-745909e7e174}, !- Handle
  6;                                      !- Number of Timesteps per Hour

OS:ShadowCalculation,
  {36b627f7-1df5-40fe-a255-4c5196cb72b1}, !- Handle
  20,                                     !- Calculation Frequency
  200;                                    !- Maximum Figures in Shadow Overlap Calculations

OS:SurfaceConvectionAlgorithm:Outside,
  {f6f3ad49-a5ac-40a3-a84a-c86c4e728c1f}, !- Handle
  DOE-2;                                  !- Algorithm

OS:SurfaceConvectionAlgorithm:Inside,
  {90a98e29-7309-4659-883a-8a4e1ae5f69c}, !- Handle
  TARP;                                   !- Algorithm

OS:ZoneCapacitanceMultiplier:ResearchSpecial,
  {6dcd5fea-f463-4d22-b783-dee1106c0d73}, !- Handle
  ,                                       !- Temperature Capacity Multiplier
  15,                                     !- Humidity Capacity Multiplier
  ;                                       !- Carbon Dioxide Capacity Multiplier

OS:RunPeriod,
  {d70568e0-f1cf-4c35-b58b-893ffb56bf03}, !- Handle
  Run Period 1,                           !- Name
  1,                                      !- Begin Month
  1,                                      !- Begin Day of Month
  12,                                     !- End Month
  31,                                     !- End Day of Month
  ,                                       !- Use Weather File Holidays and Special Days
  ,                                       !- Use Weather File Daylight Saving Period
  ,                                       !- Apply Weekend Holiday Rule
  ,                                       !- Use Weather File Rain Indicators
  ,                                       !- Use Weather File Snow Indicators
  ;                                       !- Number of Times Runperiod to be Repeated

OS:YearDescription,
  {3417b96f-9ad1-4642-a8dd-e9c5b7c5c6a1}, !- Handle
  2007,                                   !- Calendar Year
  ,                                       !- Day of Week for Start Day
  ;                                       !- Is Leap Year

OS:ThermalZone,
  {603faa0b-0894-444d-99c1-b92244cf39e5}, !- Handle
  living zone,                            !- Name
  ,                                       !- Multiplier
  ,                                       !- Ceiling Height {m}
  ,                                       !- Volume {m3}
  ,                                       !- Floor Area {m2}
  ,                                       !- Zone Inside Convection Algorithm
  ,                                       !- Zone Outside Convection Algorithm
  ,                                       !- Zone Conditioning Equipment List Name
  {6353e495-b6de-454c-9176-14a1f77cc762}, !- Zone Air Inlet Port List
  {a56c3cb5-3e23-47c3-840d-7731fa2cb16f}, !- Zone Air Exhaust Port List
  {4785af50-a9ec-46b3-a19f-f97e3fa4b74d}, !- Zone Air Node Name
  {35bace92-3f4e-44f5-bbd7-481f6121ea3d}, !- Zone Return Air Port List
  ,                                       !- Primary Daylighting Control Name
  ,                                       !- Fraction of Zone Controlled by Primary Daylighting Control
  ,                                       !- Secondary Daylighting Control Name
  ,                                       !- Fraction of Zone Controlled by Secondary Daylighting Control
  ,                                       !- Illuminance Map Name
  ,                                       !- Group Rendering Name
  {f214ce83-34b3-4cdc-a191-ea4d865dc45a}, !- Thermostat Name
  No;                                     !- Use Ideal Air Loads

OS:Node,
  {ef689167-b24e-41f9-8c3f-ecb93b4c5680}, !- Handle
  Node 1,                                 !- Name
  {4785af50-a9ec-46b3-a19f-f97e3fa4b74d}, !- Inlet Port
  ;                                       !- Outlet Port

OS:Connection,
  {4785af50-a9ec-46b3-a19f-f97e3fa4b74d}, !- Handle
  {84ee46ff-5ff2-44f8-aa37-49283a33b9f0}, !- Name
  {603faa0b-0894-444d-99c1-b92244cf39e5}, !- Source Object
  11,                                     !- Outlet Port
  {ef689167-b24e-41f9-8c3f-ecb93b4c5680}, !- Target Object
  2;                                      !- Inlet Port

OS:PortList,
  {6353e495-b6de-454c-9176-14a1f77cc762}, !- Handle
  {6074305e-0cfa-479a-be85-d0fbc67d751a}, !- Name
  {603faa0b-0894-444d-99c1-b92244cf39e5}, !- HVAC Component
  {cfa37405-f053-4c5b-916d-22e31b8bf1ed}; !- Port 1

OS:PortList,
  {a56c3cb5-3e23-47c3-840d-7731fa2cb16f}, !- Handle
  {a238b5cc-3056-4cf4-ad5a-23f8cc01ea24}, !- Name
  {603faa0b-0894-444d-99c1-b92244cf39e5}; !- HVAC Component

OS:PortList,
  {35bace92-3f4e-44f5-bbd7-481f6121ea3d}, !- Handle
  {2c004dfd-b969-4dbd-a1d2-8ea4036be892}, !- Name
  {603faa0b-0894-444d-99c1-b92244cf39e5}, !- HVAC Component
  {a65fb801-d667-4ff0-a830-4087c1ef9cd8}; !- Port 1

OS:Sizing:Zone,
  {d118e384-bc03-4b2a-8398-fff14accf93a}, !- Handle
  {603faa0b-0894-444d-99c1-b92244cf39e5}, !- Zone or ZoneList Name
  SupplyAirTemperature,                   !- Zone Cooling Design Supply Air Temperature Input Method
  14,                                     !- Zone Cooling Design Supply Air Temperature {C}
  11.11,                                  !- Zone Cooling Design Supply Air Temperature Difference {deltaC}
  SupplyAirTemperature,                   !- Zone Heating Design Supply Air Temperature Input Method
  40,                                     !- Zone Heating Design Supply Air Temperature {C}
  11.11,                                  !- Zone Heating Design Supply Air Temperature Difference {deltaC}
  0.0085,                                 !- Zone Cooling Design Supply Air Humidity Ratio {kg-H2O/kg-air}
  0.008,                                  !- Zone Heating Design Supply Air Humidity Ratio {kg-H2O/kg-air}
  ,                                       !- Zone Heating Sizing Factor
  ,                                       !- Zone Cooling Sizing Factor
  DesignDay,                              !- Cooling Design Air Flow Method
  ,                                       !- Cooling Design Air Flow Rate {m3/s}
  ,                                       !- Cooling Minimum Air Flow per Zone Floor Area {m3/s-m2}
  ,                                       !- Cooling Minimum Air Flow {m3/s}
  ,                                       !- Cooling Minimum Air Flow Fraction
  DesignDay,                              !- Heating Design Air Flow Method
  ,                                       !- Heating Design Air Flow Rate {m3/s}
  ,                                       !- Heating Maximum Air Flow per Zone Floor Area {m3/s-m2}
  ,                                       !- Heating Maximum Air Flow {m3/s}
  ,                                       !- Heating Maximum Air Flow Fraction
  ,                                       !- Design Zone Air Distribution Effectiveness in Cooling Mode
  ,                                       !- Design Zone Air Distribution Effectiveness in Heating Mode
  No,                                     !- Account for Dedicated Outdoor Air System
  NeutralSupplyAir,                       !- Dedicated Outdoor Air System Control Strategy
  autosize,                               !- Dedicated Outdoor Air Low Setpoint Temperature for Design {C}
  autosize;                               !- Dedicated Outdoor Air High Setpoint Temperature for Design {C}

OS:ZoneHVAC:EquipmentList,
  {a6e8ff3e-f16b-4507-964c-b65e23758b1f}, !- Handle
  Zone HVAC Equipment List 1,             !- Name
  {603faa0b-0894-444d-99c1-b92244cf39e5}, !- Thermal Zone
  SequentialLoad,                         !- Load Distribution Scheme
  {fbad97e4-2eb5-4310-accf-6a81bb0fb28e}, !- Zone Equipment 1
  1,                                      !- Zone Equipment Cooling Sequence 1
  1,                                      !- Zone Equipment Heating or No-Load Sequence 1
  ,                                       !- Zone Equipment Sequential Cooling Fraction Schedule Name 1
  ;                                       !- Zone Equipment Sequential Heating Fraction Schedule Name 1

OS:ThermalZone,
  {f8459038-9930-4db3-9c0d-a88fae0ceb05}, !- Handle
  garage zone,                            !- Name
  ,                                       !- Multiplier
  ,                                       !- Ceiling Height {m}
  ,                                       !- Volume {m3}
  ,                                       !- Floor Area {m2}
  ,                                       !- Zone Inside Convection Algorithm
  ,                                       !- Zone Outside Convection Algorithm
  ,                                       !- Zone Conditioning Equipment List Name
  {a565798d-5280-42f9-89f5-6f3c18f13069}, !- Zone Air Inlet Port List
  {d952bf79-a25a-40af-8430-693082cd008a}, !- Zone Air Exhaust Port List
  {ee5ceea9-b385-4732-bcfe-1d9b5cb8471c}, !- Zone Air Node Name
  {3a4fce99-e2af-46bb-902b-6f6e00686ca1}, !- Zone Return Air Port List
  ,                                       !- Primary Daylighting Control Name
  ,                                       !- Fraction of Zone Controlled by Primary Daylighting Control
  ,                                       !- Secondary Daylighting Control Name
  ,                                       !- Fraction of Zone Controlled by Secondary Daylighting Control
  ,                                       !- Illuminance Map Name
  ,                                       !- Group Rendering Name
  ,                                       !- Thermostat Name
  No;                                     !- Use Ideal Air Loads

OS:Node,
  {42e28760-624c-4f8d-a2e4-7a96688a1d0e}, !- Handle
  Node 2,                                 !- Name
  {ee5ceea9-b385-4732-bcfe-1d9b5cb8471c}, !- Inlet Port
  ;                                       !- Outlet Port

OS:Connection,
  {ee5ceea9-b385-4732-bcfe-1d9b5cb8471c}, !- Handle
  {78ce6c9b-16ad-4033-b8d9-c16d73ea2035}, !- Name
  {f8459038-9930-4db3-9c0d-a88fae0ceb05}, !- Source Object
  11,                                     !- Outlet Port
  {42e28760-624c-4f8d-a2e4-7a96688a1d0e}, !- Target Object
  2;                                      !- Inlet Port

OS:PortList,
  {a565798d-5280-42f9-89f5-6f3c18f13069}, !- Handle
  {3061e4a0-6722-4463-9e64-81da38d9ccfa}, !- Name
  {f8459038-9930-4db3-9c0d-a88fae0ceb05}; !- HVAC Component

OS:PortList,
  {d952bf79-a25a-40af-8430-693082cd008a}, !- Handle
  {3bbb2ff7-c4f3-41a0-a505-30ef6fba25a9}, !- Name
  {f8459038-9930-4db3-9c0d-a88fae0ceb05}; !- HVAC Component

OS:PortList,
  {3a4fce99-e2af-46bb-902b-6f6e00686ca1}, !- Handle
  {2526e4e3-5324-4654-a6f5-5a76e77c6de7}, !- Name
  {f8459038-9930-4db3-9c0d-a88fae0ceb05}; !- HVAC Component

OS:Sizing:Zone,
  {66506af9-2041-4df4-bbae-fc87832d7b96}, !- Handle
  {f8459038-9930-4db3-9c0d-a88fae0ceb05}, !- Zone or ZoneList Name
  SupplyAirTemperature,                   !- Zone Cooling Design Supply Air Temperature Input Method
  14,                                     !- Zone Cooling Design Supply Air Temperature {C}
  11.11,                                  !- Zone Cooling Design Supply Air Temperature Difference {deltaC}
  SupplyAirTemperature,                   !- Zone Heating Design Supply Air Temperature Input Method
  40,                                     !- Zone Heating Design Supply Air Temperature {C}
  11.11,                                  !- Zone Heating Design Supply Air Temperature Difference {deltaC}
  0.0085,                                 !- Zone Cooling Design Supply Air Humidity Ratio {kg-H2O/kg-air}
  0.008,                                  !- Zone Heating Design Supply Air Humidity Ratio {kg-H2O/kg-air}
  ,                                       !- Zone Heating Sizing Factor
  ,                                       !- Zone Cooling Sizing Factor
  DesignDay,                              !- Cooling Design Air Flow Method
  ,                                       !- Cooling Design Air Flow Rate {m3/s}
  ,                                       !- Cooling Minimum Air Flow per Zone Floor Area {m3/s-m2}
  ,                                       !- Cooling Minimum Air Flow {m3/s}
  ,                                       !- Cooling Minimum Air Flow Fraction
  DesignDay,                              !- Heating Design Air Flow Method
  ,                                       !- Heating Design Air Flow Rate {m3/s}
  ,                                       !- Heating Maximum Air Flow per Zone Floor Area {m3/s-m2}
  ,                                       !- Heating Maximum Air Flow {m3/s}
  ,                                       !- Heating Maximum Air Flow Fraction
  ,                                       !- Design Zone Air Distribution Effectiveness in Cooling Mode
  ,                                       !- Design Zone Air Distribution Effectiveness in Heating Mode
  No,                                     !- Account for Dedicated Outdoor Air System
  NeutralSupplyAir,                       !- Dedicated Outdoor Air System Control Strategy
  autosize,                               !- Dedicated Outdoor Air Low Setpoint Temperature for Design {C}
  autosize;                               !- Dedicated Outdoor Air High Setpoint Temperature for Design {C}

OS:ZoneHVAC:EquipmentList,
  {4d960905-bf1c-44b9-8d8e-d009b5411ce6}, !- Handle
  Zone HVAC Equipment List 2,             !- Name
  {f8459038-9930-4db3-9c0d-a88fae0ceb05}; !- Thermal Zone

OS:Space,
  {de0b62a9-3230-468b-b4e0-92abf11dca2f}, !- Handle
  garage space,                           !- Name
  {7647ba49-d73c-468b-acfa-46dc78798790}, !- Space Type Name
  ,                                       !- Default Construction Set Name
  ,                                       !- Default Schedule Set Name
  -0,                                     !- Direction of Relative North {deg}
  0,                                      !- X Origin {m}
  0,                                      !- Y Origin {m}
  0,                                      !- Z Origin {m}
  ,                                       !- Building Story Name
  {f8459038-9930-4db3-9c0d-a88fae0ceb05}; !- Thermal Zone Name

OS:Surface,
  {61628b21-9ee3-4be7-837d-8b22c20fb9ba}, !- Handle
  Surface 1,                              !- Name
  Floor,                                  !- Surface Type
  ,                                       !- Construction Name
  {de0b62a9-3230-468b-b4e0-92abf11dca2f}, !- Space Name
  Foundation,                             !- Outside Boundary Condition
  ,                                       !- Outside Boundary Condition Object
  NoSun,                                  !- Sun Exposure
  NoWind,                                 !- Wind Exposure
  ,                                       !- View Factor to Ground
  ,                                       !- Number of Vertices
  5.57695129776527, -3.048, 0,            !- X,Y,Z Vertex 1 {m}
  5.57695129776527, 3.048, 0,             !- X,Y,Z Vertex 2 {m}
  11.6729512977653, 3.048, 0,             !- X,Y,Z Vertex 3 {m}
  11.6729512977653, -3.048, 0;            !- X,Y,Z Vertex 4 {m}

OS:Surface,
  {f9982cdc-4f30-4300-a19a-624bf166c473}, !- Handle
  Surface 2,                              !- Name
  Wall,                                   !- Surface Type
  ,                                       !- Construction Name
  {de0b62a9-3230-468b-b4e0-92abf11dca2f}, !- Space Name
  Surface,                                !- Outside Boundary Condition
  {e4bcb4cc-f38f-4812-9794-85752928d598}, !- Outside Boundary Condition Object
  NoSun,                                  !- Sun Exposure
  NoWind,                                 !- Wind Exposure
  ,                                       !- View Factor to Ground
  ,                                       !- Number of Vertices
  5.57695129776527, 3.048, 2.4384,        !- X,Y,Z Vertex 1 {m}
  5.57695129776527, 3.048, 0,             !- X,Y,Z Vertex 2 {m}
  5.57695129776527, 0, 0,                 !- X,Y,Z Vertex 3 {m}
  5.57695129776527, 0, 2.4384;            !- X,Y,Z Vertex 4 {m}

OS:Surface,
  {d768cd57-25d5-444a-88b2-337f64daeb16}, !- Handle
  Surface 3,                              !- Name
  Wall,                                   !- Surface Type
  ,                                       !- Construction Name
  {de0b62a9-3230-468b-b4e0-92abf11dca2f}, !- Space Name
  Surface,                                !- Outside Boundary Condition
  {9794845d-84ca-4a60-b732-e0bf7fff81e5}, !- Outside Boundary Condition Object
  NoSun,                                  !- Sun Exposure
  NoWind,                                 !- Wind Exposure
  ,                                       !- View Factor to Ground
  ,                                       !- Number of Vertices
  11.6729512977653, 3.048, 2.4384,        !- X,Y,Z Vertex 1 {m}
  11.6729512977653, 3.048, 0,             !- X,Y,Z Vertex 2 {m}
  5.57695129776527, 3.048, 0,             !- X,Y,Z Vertex 3 {m}
  5.57695129776527, 3.048, 2.4384;        !- X,Y,Z Vertex 4 {m}

OS:Surface,
  {84e8144d-0b0f-42a9-8134-e4a57e6d5754}, !- Handle
  Surface 4,                              !- Name
  Wall,                                   !- Surface Type
  ,                                       !- Construction Name
  {de0b62a9-3230-468b-b4e0-92abf11dca2f}, !- Space Name
  Outdoors,                               !- Outside Boundary Condition
  ,                                       !- Outside Boundary Condition Object
  SunExposed,                             !- Sun Exposure
  WindExposed,                            !- Wind Exposure
  ,                                       !- View Factor to Ground
  ,                                       !- Number of Vertices
  11.6729512977653, -3.048, 2.4384,       !- X,Y,Z Vertex 1 {m}
  11.6729512977653, -3.048, 0,            !- X,Y,Z Vertex 2 {m}
  11.6729512977653, 3.048, 0,             !- X,Y,Z Vertex 3 {m}
  11.6729512977653, 3.048, 2.4384;        !- X,Y,Z Vertex 4 {m}

OS:Surface,
  {98b891a5-d066-42ed-a113-d16a67a3db81}, !- Handle
  Surface 5,                              !- Name
  Wall,                                   !- Surface Type
  ,                                       !- Construction Name
  {de0b62a9-3230-468b-b4e0-92abf11dca2f}, !- Space Name
  Outdoors,                               !- Outside Boundary Condition
  ,                                       !- Outside Boundary Condition Object
  SunExposed,                             !- Sun Exposure
  WindExposed,                            !- Wind Exposure
  ,                                       !- View Factor to Ground
  ,                                       !- Number of Vertices
  5.57695129776527, -3.048, 2.4384,       !- X,Y,Z Vertex 1 {m}
  5.57695129776527, -3.048, 0,            !- X,Y,Z Vertex 2 {m}
  11.6729512977653, -3.048, 0,            !- X,Y,Z Vertex 3 {m}
  11.6729512977653, -3.048, 2.4384;       !- X,Y,Z Vertex 4 {m}

OS:Surface,
  {d5e10acc-8c15-42ab-ac83-45b646878e05}, !- Handle
  Surface 6,                              !- Name
  RoofCeiling,                            !- Surface Type
  ,                                       !- Construction Name
  {de0b62a9-3230-468b-b4e0-92abf11dca2f}, !- Space Name
  Surface,                                !- Outside Boundary Condition
  {faf7e010-9092-429c-a8d1-0de6df20916c}, !- Outside Boundary Condition Object
  NoSun,                                  !- Sun Exposure
  NoWind,                                 !- Wind Exposure
  ,                                       !- View Factor to Ground
  ,                                       !- Number of Vertices
  11.6729512977653, -3.048, 2.4384,       !- X,Y,Z Vertex 1 {m}
  11.6729512977653, 3.048, 2.4384,        !- X,Y,Z Vertex 2 {m}
  5.57695129776527, 3.048, 2.4384,        !- X,Y,Z Vertex 3 {m}
  5.57695129776527, -3.048, 2.4384;       !- X,Y,Z Vertex 4 {m}

OS:SpaceType,
  {7647ba49-d73c-468b-acfa-46dc78798790}, !- Handle
  Space Type 1,                           !- Name
  ,                                       !- Default Construction Set Name
  ,                                       !- Default Schedule Set Name
  ,                                       !- Group Rendering Name
  ,                                       !- Design Specification Outdoor Air Object Name
  ,                                       !- Standards Template
  ,                                       !- Standards Building Type
  garage;                                 !- Standards Space Type

OS:Space,
  {fdcb9505-01b5-4e93-9097-9349a30447e0}, !- Handle
  living space,                           !- Name
  {075f743a-a916-4673-946d-2ff0eb3532b6}, !- Space Type Name
  ,                                       !- Default Construction Set Name
  ,                                       !- Default Schedule Set Name
  -0,                                     !- Direction of Relative North {deg}
  0,                                      !- X Origin {m}
  0,                                      !- Y Origin {m}
  0,                                      !- Z Origin {m}
  ,                                       !- Building Story Name
  {603faa0b-0894-444d-99c1-b92244cf39e5}, !- Thermal Zone Name
  ,                                       !- Part of Total Floor Area
  ,                                       !- Design Specification Outdoor Air Object Name
  {cc08c423-6fba-4cf3-bd42-5538e36bda56}; !- Building Unit Name

OS:Surface,
  {65f1ce0c-0de3-4ec7-9f5a-c60f8480b2ae}, !- Handle
  Surface 7,                              !- Name
  Floor,                                  !- Surface Type
  ,                                       !- Construction Name
  {fdcb9505-01b5-4e93-9097-9349a30447e0}, !- Space Name
  Surface,                                !- Outside Boundary Condition
  {edf3ce07-fbe0-4800-8096-4de165b9842a}, !- Outside Boundary Condition Object
  NoSun,                                  !- Sun Exposure
  NoWind,                                 !- Wind Exposure
  ,                                       !- View Factor to Ground
  ,                                       !- Number of Vertices
  0, 0, 0,                                !- X,Y,Z Vertex 1 {m}
  0, 5.83647564888264, 0,                 !- X,Y,Z Vertex 2 {m}
  11.6729512977653, 5.83647564888264, 0,  !- X,Y,Z Vertex 3 {m}
  11.6729512977653, 3.048, 0,             !- X,Y,Z Vertex 4 {m}
  5.57695129776527, 3.048, 0,             !- X,Y,Z Vertex 5 {m}
  5.57695129776527, 0, 0;                 !- X,Y,Z Vertex 6 {m}

OS:Surface,
  {37640ce1-a931-4b27-8aa9-a723d981fe66}, !- Handle
  Surface 8,                              !- Name
  Wall,                                   !- Surface Type
  ,                                       !- Construction Name
  {fdcb9505-01b5-4e93-9097-9349a30447e0}, !- Space Name
  Outdoors,                               !- Outside Boundary Condition
  ,                                       !- Outside Boundary Condition Object
  SunExposed,                             !- Sun Exposure
  WindExposed,                            !- Wind Exposure
  ,                                       !- View Factor to Ground
  ,                                       !- Number of Vertices
  0, 5.83647564888264, 2.4384,            !- X,Y,Z Vertex 1 {m}
  0, 5.83647564888264, 0,                 !- X,Y,Z Vertex 2 {m}
  0, 0, 0,                                !- X,Y,Z Vertex 3 {m}
  0, 0, 2.4384;                           !- X,Y,Z Vertex 4 {m}

OS:Surface,
  {0714fe15-e2be-4b64-bbf3-6bb66838b7b8}, !- Handle
  Surface 9,                              !- Name
  Wall,                                   !- Surface Type
  ,                                       !- Construction Name
  {fdcb9505-01b5-4e93-9097-9349a30447e0}, !- Space Name
  Outdoors,                               !- Outside Boundary Condition
  ,                                       !- Outside Boundary Condition Object
  SunExposed,                             !- Sun Exposure
  WindExposed,                            !- Wind Exposure
  ,                                       !- View Factor to Ground
  ,                                       !- Number of Vertices
  11.6729512977653, 5.83647564888264, 2.4384, !- X,Y,Z Vertex 1 {m}
  11.6729512977653, 5.83647564888264, 0,  !- X,Y,Z Vertex 2 {m}
  0, 5.83647564888264, 0,                 !- X,Y,Z Vertex 3 {m}
  0, 5.83647564888264, 2.4384;            !- X,Y,Z Vertex 4 {m}

OS:Surface,
  {06a586f8-9dd5-4c5a-aa8c-b4a46ffcbde6}, !- Handle
  Surface 10,                             !- Name
  Wall,                                   !- Surface Type
  ,                                       !- Construction Name
  {fdcb9505-01b5-4e93-9097-9349a30447e0}, !- Space Name
  Outdoors,                               !- Outside Boundary Condition
  ,                                       !- Outside Boundary Condition Object
  SunExposed,                             !- Sun Exposure
  WindExposed,                            !- Wind Exposure
  ,                                       !- View Factor to Ground
  ,                                       !- Number of Vertices
  11.6729512977653, 3.048, 2.4384,        !- X,Y,Z Vertex 1 {m}
  11.6729512977653, 3.048, 0,             !- X,Y,Z Vertex 2 {m}
  11.6729512977653, 5.83647564888264, 0,  !- X,Y,Z Vertex 3 {m}
  11.6729512977653, 5.83647564888264, 2.4384; !- X,Y,Z Vertex 4 {m}

OS:Surface,
  {9794845d-84ca-4a60-b732-e0bf7fff81e5}, !- Handle
  Surface 11,                             !- Name
  Wall,                                   !- Surface Type
  ,                                       !- Construction Name
  {fdcb9505-01b5-4e93-9097-9349a30447e0}, !- Space Name
  Surface,                                !- Outside Boundary Condition
  {d768cd57-25d5-444a-88b2-337f64daeb16}, !- Outside Boundary Condition Object
  NoSun,                                  !- Sun Exposure
  NoWind,                                 !- Wind Exposure
  ,                                       !- View Factor to Ground
  ,                                       !- Number of Vertices
  5.57695129776527, 3.048, 2.4384,        !- X,Y,Z Vertex 1 {m}
  5.57695129776527, 3.048, 0,             !- X,Y,Z Vertex 2 {m}
  11.6729512977653, 3.048, 0,             !- X,Y,Z Vertex 3 {m}
  11.6729512977653, 3.048, 2.4384;        !- X,Y,Z Vertex 4 {m}

OS:Surface,
  {e4bcb4cc-f38f-4812-9794-85752928d598}, !- Handle
  Surface 12,                             !- Name
  Wall,                                   !- Surface Type
  ,                                       !- Construction Name
  {fdcb9505-01b5-4e93-9097-9349a30447e0}, !- Space Name
  Surface,                                !- Outside Boundary Condition
  {f9982cdc-4f30-4300-a19a-624bf166c473}, !- Outside Boundary Condition Object
  NoSun,                                  !- Sun Exposure
  NoWind,                                 !- Wind Exposure
  ,                                       !- View Factor to Ground
  ,                                       !- Number of Vertices
  5.57695129776527, 0, 2.4384,            !- X,Y,Z Vertex 1 {m}
  5.57695129776527, 0, 0,                 !- X,Y,Z Vertex 2 {m}
  5.57695129776527, 3.048, 0,             !- X,Y,Z Vertex 3 {m}
  5.57695129776527, 3.048, 2.4384;        !- X,Y,Z Vertex 4 {m}

OS:Surface,
  {c7d17e52-f605-4a40-8b6b-92615b9a5719}, !- Handle
  Surface 13,                             !- Name
  Wall,                                   !- Surface Type
  ,                                       !- Construction Name
  {fdcb9505-01b5-4e93-9097-9349a30447e0}, !- Space Name
  Outdoors,                               !- Outside Boundary Condition
  ,                                       !- Outside Boundary Condition Object
  SunExposed,                             !- Sun Exposure
  WindExposed,                            !- Wind Exposure
  ,                                       !- View Factor to Ground
  ,                                       !- Number of Vertices
  0, 0, 2.4384,                           !- X,Y,Z Vertex 1 {m}
  0, 0, 0,                                !- X,Y,Z Vertex 2 {m}
  5.57695129776527, 0, 0,                 !- X,Y,Z Vertex 3 {m}
  5.57695129776527, 0, 2.4384;            !- X,Y,Z Vertex 4 {m}

OS:Surface,
  {0d2b720a-3587-445f-859d-ec48ce0f49b2}, !- Handle
  Surface 14,                             !- Name
  RoofCeiling,                            !- Surface Type
  ,                                       !- Construction Name
  {fdcb9505-01b5-4e93-9097-9349a30447e0}, !- Space Name
  Surface,                                !- Outside Boundary Condition
  {4fe0c0bd-031f-4075-830e-7433af30ee5c}, !- Outside Boundary Condition Object
  NoSun,                                  !- Sun Exposure
  NoWind,                                 !- Wind Exposure
  ,                                       !- View Factor to Ground
  ,                                       !- Number of Vertices
  5.57695129776527, 0, 2.4384,            !- X,Y,Z Vertex 1 {m}
  5.57695129776527, 3.048, 2.4384,        !- X,Y,Z Vertex 2 {m}
  11.6729512977653, 3.048, 2.4384,        !- X,Y,Z Vertex 3 {m}
  11.6729512977653, 5.83647564888264, 2.4384, !- X,Y,Z Vertex 4 {m}
  0, 5.83647564888264, 2.4384,            !- X,Y,Z Vertex 5 {m}
  0, 0, 2.4384;                           !- X,Y,Z Vertex 6 {m}

OS:SpaceType,
  {075f743a-a916-4673-946d-2ff0eb3532b6}, !- Handle
  Space Type 2,                           !- Name
  ,                                       !- Default Construction Set Name
  ,                                       !- Default Schedule Set Name