!- NOTE: Auto-generated from /test/osw_files/SFD_HVACSizing_Equip_BB_Autosize.osw

OS:Version,
  {02ff6b31-9db4-43c7-bf6b-e944f23ae2c4}, !- Handle
  2.9.0;                                  !- Version Identifier

OS:SimulationControl,
  {3ac9c4a1-eca9-4bc9-ad76-e4810abe3f99}, !- Handle
  ,                                       !- Do Zone Sizing Calculation
  ,                                       !- Do System Sizing Calculation
  ,                                       !- Do Plant Sizing Calculation
  No;                                     !- Run Simulation for Sizing Periods

OS:Timestep,
  {a611fd0d-2d5f-409b-ad71-e957e3f19e40}, !- Handle
  6;                                      !- Number of Timesteps per Hour

OS:ShadowCalculation,
  {3f7916ca-37d8-49b8-97d4-8f3291d42e4a}, !- Handle
  20,                                     !- Calculation Frequency
  200;                                    !- Maximum Figures in Shadow Overlap Calculations

OS:SurfaceConvectionAlgorithm:Outside,
  {506680fa-5ec0-432d-95cb-98bac7d32aef}, !- Handle
  DOE-2;                                  !- Algorithm

OS:SurfaceConvectionAlgorithm:Inside,
  {289c19e8-186c-4dd9-ad31-f0fac6644a94}, !- Handle
  TARP;                                   !- Algorithm

OS:ZoneCapacitanceMultiplier:ResearchSpecial,
  {c215dd91-12a0-4521-86f0-dda0cf6d3b3a}, !- Handle
  ,                                       !- Temperature Capacity Multiplier
  15,                                     !- Humidity Capacity Multiplier
  ;                                       !- Carbon Dioxide Capacity Multiplier

OS:RunPeriod,
  {c5da4c71-82b0-4746-b4e7-92f524bd1528}, !- Handle
  Run Period 1,                           !- Name
  1,                                      !- Begin Month
  1,                                      !- Begin Day of Month
  12,                                     !- End Month
  31,                                     !- End Day of Month
  ,                                       !- Use Weather File Holidays and Special Days
  ,                                       !- Use Weather File Daylight Saving Period
  ,                                       !- Apply Weekend Holiday Rule
  ,                                       !- Use Weather File Rain Indicators
  ,                                       !- Use Weather File Snow Indicators
  ;                                       !- Number of Times Runperiod to be Repeated

OS:YearDescription,
  {731e4e0f-a0f2-43b8-bdb6-18622fdf4c3b}, !- Handle
  2007,                                   !- Calendar Year
  ,                                       !- Day of Week for Start Day
  ;                                       !- Is Leap Year

OS:WeatherFile,
  {7e21a1ca-1ea1-465f-8145-66e4227b2f9b}, !- Handle
  Denver Intl Ap,                         !- City
  CO,                                     !- State Province Region
  USA,                                    !- Country
  TMY3,                                   !- Data Source
  725650,                                 !- WMO Number
  39.83,                                  !- Latitude {deg}
  -104.65,                                !- Longitude {deg}
  -7,                                     !- Time Zone {hr}
  1650,                                   !- Elevation {m}
  file:../weather/USA_CO_Denver.Intl.AP.725650_TMY3.epw, !- Url
  E23378AA;                               !- Checksum

OS:AdditionalProperties,
  {85ebcd8c-0041-438f-893b-fa067e2062d2}, !- Handle
  {7e21a1ca-1ea1-465f-8145-66e4227b2f9b}, !- Object Name
  EPWHeaderCity,                          !- Feature Name 1
  String,                                 !- Feature Data Type 1
  Denver Intl Ap,                         !- Feature Value 1
  EPWHeaderState,                         !- Feature Name 2
  String,                                 !- Feature Data Type 2
  CO,                                     !- Feature Value 2
  EPWHeaderCountry,                       !- Feature Name 3
  String,                                 !- Feature Data Type 3
  USA,                                    !- Feature Value 3
  EPWHeaderDataSource,                    !- Feature Name 4
  String,                                 !- Feature Data Type 4
  TMY3,                                   !- Feature Value 4
  EPWHeaderStation,                       !- Feature Name 5
  String,                                 !- Feature Data Type 5
  725650,                                 !- Feature Value 5
  EPWHeaderLatitude,                      !- Feature Name 6
  Double,                                 !- Feature Data Type 6
  39.829999999999998,                     !- Feature Value 6
  EPWHeaderLongitude,                     !- Feature Name 7
  Double,                                 !- Feature Data Type 7
  -104.65000000000001,                    !- Feature Value 7
  EPWHeaderTimezone,                      !- Feature Name 8
  Double,                                 !- Feature Data Type 8
  -7,                                     !- Feature Value 8
  EPWHeaderAltitude,                      !- Feature Name 9
  Double,                                 !- Feature Data Type 9
  5413.3858267716532,                     !- Feature Value 9
  EPWHeaderLocalPressure,                 !- Feature Name 10
  Double,                                 !- Feature Data Type 10
  0.81937567683596546,                    !- Feature Value 10
  EPWHeaderRecordsPerHour,                !- Feature Name 11
  Double,                                 !- Feature Data Type 11
  0,                                      !- Feature Value 11
  EPWDataAnnualAvgDrybulb,                !- Feature Name 12
  Double,                                 !- Feature Data Type 12
  51.575616438356228,                     !- Feature Value 12
  EPWDataAnnualMinDrybulb,                !- Feature Name 13
  Double,                                 !- Feature Data Type 13
  -2.9200000000000017,                    !- Feature Value 13
  EPWDataAnnualMaxDrybulb,                !- Feature Name 14
  Double,                                 !- Feature Data Type 14
  104,                                    !- Feature Value 14
  EPWDataCDD50F,                          !- Feature Name 15
  Double,                                 !- Feature Data Type 15
  3072.2925000000005,                     !- Feature Value 15
  EPWDataCDD65F,                          !- Feature Name 16
  Double,                                 !- Feature Data Type 16
  883.62000000000035,                     !- Feature Value 16
  EPWDataHDD50F,                          !- Feature Name 17
  Double,                                 !- Feature Data Type 17
  2497.1925000000001,                     !- Feature Value 17
  EPWDataHDD65F,                          !- Feature Name 18
  Double,                                 !- Feature Data Type 18
  5783.5200000000013,                     !- Feature Value 18
  EPWDataAnnualAvgWindspeed,              !- Feature Name 19
  Double,                                 !- Feature Data Type 19
  3.9165296803649667,                     !- Feature Value 19
  EPWDataMonthlyAvgDrybulbs,              !- Feature Name 20
  String,                                 !- Feature Data Type 20
  33.4191935483871&#4431.90142857142857&#4443.02620967741937&#4442.48624999999999&#4459.877741935483854&#4473.57574999999997&#4472.07975806451608&#4472.70008064516134&#4466.49200000000006&#4450.079112903225806&#4437.218250000000005&#4434.582177419354835, !- Feature Value 20
  EPWDataGroundMonthlyTemps,              !- Feature Name 21
  String,                                 !- Feature Data Type 21
  44.08306285945173&#4440.89570904991865&#4440.64045432632048&#4442.153016571250646&#4448.225111118704206&#4454.268919273837525&#4459.508577937551024&#4462.82777283423508&#4463.10975667174995&#4460.41014950381947&#4455.304105212311526&#4449.445696474514364, !- Feature Value 21
  EPWDataWSF,                             !- Feature Name 22
  Double,                                 !- Feature Data Type 22
  0.58999999999999997,                    !- Feature Value 22
  EPWDataMonthlyAvgDailyHighDrybulbs,     !- Feature Name 23
  String,                                 !- Feature Data Type 23
  47.41032258064516&#4446.58642857142857&#4455.15032258064517&#4453.708&#4472.80193548387098&#4488.67600000000002&#4486.1858064516129&#4485.87225806451613&#4482.082&#4463.18064516129033&#4448.73400000000001&#4448.87935483870968, !- Feature Value 23
  EPWDataMonthlyAvgDailyLowDrybulbs,      !- Feature Name 24
  String,                                 !- Feature Data Type 24
  19.347741935483874&#4419.856428571428573&#4430.316129032258065&#4431.112&#4447.41612903225806&#4457.901999999999994&#4459.063870967741934&#4460.956774193548384&#4452.352000000000004&#4438.41612903225806&#4427.002000000000002&#4423.02903225806451, !- Feature Value 24
  EPWDesignHeatingDrybulb,                !- Feature Name 25
  Double,                                 !- Feature Data Type 25
  12.02,                                  !- Feature Value 25
  EPWDesignHeatingWindspeed,              !- Feature Name 26
  Double,                                 !- Feature Data Type 26
  2.8062500000000004,                     !- Feature Value 26
  EPWDesignCoolingDrybulb,                !- Feature Name 27
  Double,                                 !- Feature Data Type 27
  91.939999999999998,                     !- Feature Value 27
  EPWDesignCoolingWetbulb,                !- Feature Name 28
  Double,                                 !- Feature Data Type 28
  59.95131430195849,                      !- Feature Value 28
  EPWDesignCoolingHumidityRatio,          !- Feature Name 29
  Double,                                 !- Feature Data Type 29
  0.0059161086834698092,                  !- Feature Value 29
  EPWDesignCoolingWindspeed,              !- Feature Name 30
  Double,                                 !- Feature Data Type 30
  3.7999999999999989,                     !- Feature Value 30
  EPWDesignDailyTemperatureRange,         !- Feature Name 31
  Double,                                 !- Feature Data Type 31
  24.915483870967748,                     !- Feature Value 31
  EPWDesignDehumidDrybulb,                !- Feature Name 32
  Double,                                 !- Feature Data Type 32
  67.996785714285721,                     !- Feature Value 32
  EPWDesignDehumidHumidityRatio,          !- Feature Name 33
  Double,                                 !- Feature Data Type 33
  0.012133744170488724,                   !- Feature Value 33
  EPWDesignCoolingDirectNormal,           !- Feature Name 34
  Double,                                 !- Feature Data Type 34
  985,                                    !- Feature Value 34
  EPWDesignCoolingDiffuseHorizontal,      !- Feature Name 35
  Double,                                 !- Feature Data Type 35
  84;                                     !- Feature Value 35

OS:Site,
  {91fd37ba-0c42-4ad7-80c8-d27a337a5067}, !- Handle
  Denver Intl Ap_CO_USA,                  !- Name
  39.83,                                  !- Latitude {deg}
  -104.65,                                !- Longitude {deg}
  -7,                                     !- Time Zone {hr}
  1650,                                   !- Elevation {m}
  Suburbs;                                !- Terrain

OS:ClimateZones,
  {f5f146cc-8a28-46da-ad22-c300f9239ddf}, !- Handle
  ,                                       !- Active Institution
  ,                                       !- Active Year
  ,                                       !- Climate Zone Institution Name 1
  ,                                       !- Climate Zone Document Name 1
  ,                                       !- Climate Zone Document Year 1
  ,                                       !- Climate Zone Value 1
  Building America,                       !- Climate Zone Institution Name 2
  ,                                       !- Climate Zone Document Name 2
  0,                                      !- Climate Zone Document Year 2
  Cold;                                   !- Climate Zone Value 2

OS:Site:WaterMainsTemperature,
  {a1a33a71-f5fa-4ed2-97f3-cf6d82850677}, !- Handle
  Correlation,                            !- Calculation Method
  ,                                       !- Temperature Schedule Name
  10.8753424657535,                       !- Annual Average Outdoor Air Temperature {C}
  23.1524007936508;                       !- Maximum Difference In Monthly Average Outdoor Air Temperatures {deltaC}

OS:RunPeriodControl:DaylightSavingTime,
  {b379e5c0-2548-446b-b879-06a5c50419b2}, !- Handle
  4/7,                                    !- Start Date
  10/26;                                  !- End Date

OS:Site:GroundTemperature:Deep,
  {79ef731b-e99a-46f2-9533-66f8d2bfb4f7}, !- Handle
  10.8753424657535,                       !- January Deep Ground Temperature {C}
  10.8753424657535,                       !- February Deep Ground Temperature {C}
  10.8753424657535,                       !- March Deep Ground Temperature {C}
  10.8753424657535,                       !- April Deep Ground Temperature {C}
  10.8753424657535,                       !- May Deep Ground Temperature {C}
  10.8753424657535,                       !- June Deep Ground Temperature {C}
  10.8753424657535,                       !- July Deep Ground Temperature {C}
  10.8753424657535,                       !- August Deep Ground Temperature {C}
  10.8753424657535,                       !- September Deep Ground Temperature {C}
  10.8753424657535,                       !- October Deep Ground Temperature {C}
  10.8753424657535,                       !- November Deep Ground Temperature {C}
  10.8753424657535;                       !- December Deep Ground Temperature {C}

OS:ThermalZone,
  {2d99a8a2-2835-40fa-9ba9-881a871d4284}, !- Handle
  living zone,                            !- Name
  ,                                       !- Multiplier
  ,                                       !- Ceiling Height {m}
  ,                                       !- Volume {m3}
  ,                                       !- Floor Area {m2}
  ,                                       !- Zone Inside Convection Algorithm
  ,                                       !- Zone Outside Convection Algorithm
  ,                                       !- Zone Conditioning Equipment List Name
  {9489be1a-ce26-4c96-ae66-01dec555b5f0}, !- Zone Air Inlet Port List
  {97b4579e-83d6-4792-b6a3-f6f62e10207e}, !- Zone Air Exhaust Port List
  {4e148b5b-016a-43a6-89b9-a198dfb4d74e}, !- Zone Air Node Name
  {c121b948-903e-4fb1-9321-2c5bc804d807}, !- Zone Return Air Port List
  ,                                       !- Primary Daylighting Control Name
  ,                                       !- Fraction of Zone Controlled by Primary Daylighting Control
  ,                                       !- Secondary Daylighting Control Name
  ,                                       !- Fraction of Zone Controlled by Secondary Daylighting Control
  ,                                       !- Illuminance Map Name
  ,                                       !- Group Rendering Name
  {a1f7cb74-8efd-4869-bf43-08c3d7693147}, !- Thermostat Name
  No;                                     !- Use Ideal Air Loads

OS:Node,
  {bca1bff6-32aa-4b4d-8535-7ede979bc0e9}, !- Handle
  Node 1,                                 !- Name
  {4e148b5b-016a-43a6-89b9-a198dfb4d74e}, !- Inlet Port
  ;                                       !- Outlet Port

OS:Connection,
  {4e148b5b-016a-43a6-89b9-a198dfb4d74e}, !- Handle
  {b336dcd0-8b42-49bf-8bbc-3f86c7edae33}, !- Name
  {2d99a8a2-2835-40fa-9ba9-881a871d4284}, !- Source Object
  11,                                     !- Outlet Port
  {bca1bff6-32aa-4b4d-8535-7ede979bc0e9}, !- Target Object
  2;                                      !- Inlet Port

OS:PortList,
  {9489be1a-ce26-4c96-ae66-01dec555b5f0}, !- Handle
  {e226bf97-ac0b-4ca4-8180-0a6a6494902e}, !- Name
  {2d99a8a2-2835-40fa-9ba9-881a871d4284}; !- HVAC Component

OS:PortList,
  {97b4579e-83d6-4792-b6a3-f6f62e10207e}, !- Handle
  {4cd00485-f2b4-437c-a1bd-5265041021c8}, !- Name
  {2d99a8a2-2835-40fa-9ba9-881a871d4284}; !- HVAC Component

OS:PortList,
  {c121b948-903e-4fb1-9321-2c5bc804d807}, !- Handle
  {570dd346-e7ee-4f28-9102-79732cbad0bd}, !- Name
  {2d99a8a2-2835-40fa-9ba9-881a871d4284}; !- HVAC Component

OS:Sizing:Zone,
  {68a74adc-5b3f-44d7-8f88-71ed172ac6c0}, !- Handle
  {2d99a8a2-2835-40fa-9ba9-881a871d4284}, !- Zone or ZoneList Name
  SupplyAirTemperature,                   !- Zone Cooling Design Supply Air Temperature Input Method
  14,                                     !- Zone Cooling Design Supply Air Temperature {C}
  11.11,                                  !- Zone Cooling Design Supply Air Temperature Difference {deltaC}
  SupplyAirTemperature,                   !- Zone Heating Design Supply Air Temperature Input Method
  40,                                     !- Zone Heating Design Supply Air Temperature {C}
  11.11,                                  !- Zone Heating Design Supply Air Temperature Difference {deltaC}
  0.0085,                                 !- Zone Cooling Design Supply Air Humidity Ratio {kg-H2O/kg-air}
  0.008,                                  !- Zone Heating Design Supply Air Humidity Ratio {kg-H2O/kg-air}
  ,                                       !- Zone Heating Sizing Factor
  ,                                       !- Zone Cooling Sizing Factor
  DesignDay,                              !- Cooling Design Air Flow Method
  ,                                       !- Cooling Design Air Flow Rate {m3/s}
  ,                                       !- Cooling Minimum Air Flow per Zone Floor Area {m3/s-m2}
  ,                                       !- Cooling Minimum Air Flow {m3/s}
  ,                                       !- Cooling Minimum Air Flow Fraction
  DesignDay,                              !- Heating Design Air Flow Method
  ,                                       !- Heating Design Air Flow Rate {m3/s}
  ,                                       !- Heating Maximum Air Flow per Zone Floor Area {m3/s-m2}
  ,                                       !- Heating Maximum Air Flow {m3/s}
  ,                                       !- Heating Maximum Air Flow Fraction
  ,                                       !- Design Zone Air Distribution Effectiveness in Cooling Mode
  ,                                       !- Design Zone Air Distribution Effectiveness in Heating Mode
  No,                                     !- Account for Dedicated Outdoor Air System
  NeutralSupplyAir,                       !- Dedicated Outdoor Air System Control Strategy
  autosize,                               !- Dedicated Outdoor Air Low Setpoint Temperature for Design {C}
  autosize;                               !- Dedicated Outdoor Air High Setpoint Temperature for Design {C}

OS:ZoneHVAC:EquipmentList,
  {cdf41683-414a-48e0-927d-c3f03e8aa9e8}, !- Handle
  Zone HVAC Equipment List 1,             !- Name
  {2d99a8a2-2835-40fa-9ba9-881a871d4284}, !- Thermal Zone
  SequentialLoad,                         !- Load Distribution Scheme
  {f40bba5e-8936-4c2e-a6dd-5ef11a37a3e2}, !- Zone Equipment 1
  1,                                      !- Zone Equipment Cooling Sequence 1
  1,                                      !- Zone Equipment Heating or No-Load Sequence 1
  ,                                       !- Zone Equipment Sequential Cooling Fraction Schedule Name 1
  ;                                       !- Zone Equipment Sequential Heating Fraction Schedule Name 1

OS:ThermalZone,
  {4aad633f-ed48-4cf9-bd0d-138246a3ef6c}, !- Handle
  garage zone,                            !- Name
  ,                                       !- Multiplier
  ,                                       !- Ceiling Height {m}
  ,                                       !- Volume {m3}
  ,                                       !- Floor Area {m2}
  ,                                       !- Zone Inside Convection Algorithm
  ,                                       !- Zone Outside Convection Algorithm
  ,                                       !- Zone Conditioning Equipment List Name
  {79a8fdb4-c813-403f-bbe7-59b6313ada27}, !- Zone Air Inlet Port List
  {22876908-1c29-42fd-91be-0dbab93bbbb3}, !- Zone Air Exhaust Port List
  {9e023faa-2840-40f1-a4a3-27ccdea3ae8b}, !- Zone Air Node Name
  {a688ba6a-1502-4fae-a579-902e01d18a1a}, !- Zone Return Air Port List
  ,                                       !- Primary Daylighting Control Name
  ,                                       !- Fraction of Zone Controlled by Primary Daylighting Control
  ,                                       !- Secondary Daylighting Control Name
  ,                                       !- Fraction of Zone Controlled by Secondary Daylighting Control
  ,                                       !- Illuminance Map Name
  ,                                       !- Group Rendering Name
  ,                                       !- Thermostat Name
  No;                                     !- Use Ideal Air Loads

OS:Node,
  {82500d33-40c4-4bd9-878f-6b83aaf94134}, !- Handle
  Node 2,                                 !- Name
  {9e023faa-2840-40f1-a4a3-27ccdea3ae8b}, !- Inlet Port
  ;                                       !- Outlet Port

OS:Connection,
  {9e023faa-2840-40f1-a4a3-27ccdea3ae8b}, !- Handle
  {2f4b0ad7-cbc2-47ab-ab6d-8577c9458023}, !- Name
  {4aad633f-ed48-4cf9-bd0d-138246a3ef6c}, !- Source Object
  11,                                     !- Outlet Port
  {82500d33-40c4-4bd9-878f-6b83aaf94134}, !- Target Object
  2;                                      !- Inlet Port

OS:PortList,
  {79a8fdb4-c813-403f-bbe7-59b6313ada27}, !- Handle
  {a7bbdbc6-226b-496b-8087-3dbe914bdeac}, !- Name
  {4aad633f-ed48-4cf9-bd0d-138246a3ef6c}; !- HVAC Component

OS:PortList,
  {22876908-1c29-42fd-91be-0dbab93bbbb3}, !- Handle
  {b5ba703c-01d6-4d49-8962-ffd60eeae396}, !- Name
  {4aad633f-ed48-4cf9-bd0d-138246a3ef6c}; !- HVAC Component

OS:PortList,
  {a688ba6a-1502-4fae-a579-902e01d18a1a}, !- Handle
  {f4da5b1b-ba56-4c06-a903-ca12550e10ba}, !- Name
  {4aad633f-ed48-4cf9-bd0d-138246a3ef6c}; !- HVAC Component

OS:Sizing:Zone,
  {e860b570-e45d-4439-abbc-c0081a69d93c}, !- Handle
  {4aad633f-ed48-4cf9-bd0d-138246a3ef6c}, !- Zone or ZoneList Name
  SupplyAirTemperature,                   !- Zone Cooling Design Supply Air Temperature Input Method
  14,                                     !- Zone Cooling Design Supply Air Temperature {C}
  11.11,                                  !- Zone Cooling Design Supply Air Temperature Difference {deltaC}
  SupplyAirTemperature,                   !- Zone Heating Design Supply Air Temperature Input Method
  40,                                     !- Zone Heating Design Supply Air Temperature {C}
  11.11,                                  !- Zone Heating Design Supply Air Temperature Difference {deltaC}
  0.0085,                                 !- Zone Cooling Design Supply Air Humidity Ratio {kg-H2O/kg-air}
  0.008,                                  !- Zone Heating Design Supply Air Humidity Ratio {kg-H2O/kg-air}
  ,                                       !- Zone Heating Sizing Factor
  ,                                       !- Zone Cooling Sizing Factor
  DesignDay,                              !- Cooling Design Air Flow Method
  ,                                       !- Cooling Design Air Flow Rate {m3/s}
  ,                                       !- Cooling Minimum Air Flow per Zone Floor Area {m3/s-m2}
  ,                                       !- Cooling Minimum Air Flow {m3/s}
  ,                                       !- Cooling Minimum Air Flow Fraction
  DesignDay,                              !- Heating Design Air Flow Method
  ,                                       !- Heating Design Air Flow Rate {m3/s}
  ,                                       !- Heating Maximum Air Flow per Zone Floor Area {m3/s-m2}
  ,                                       !- Heating Maximum Air Flow {m3/s}
  ,                                       !- Heating Maximum Air Flow Fraction
  ,                                       !- Design Zone Air Distribution Effectiveness in Cooling Mode
  ,                                       !- Design Zone Air Distribution Effectiveness in Heating Mode
  No,                                     !- Account for Dedicated Outdoor Air System
  NeutralSupplyAir,                       !- Dedicated Outdoor Air System Control Strategy
  autosize,                               !- Dedicated Outdoor Air Low Setpoint Temperature for Design {C}
  autosize;                               !- Dedicated Outdoor Air High Setpoint Temperature for Design {C}

OS:ZoneHVAC:EquipmentList,
  {aebaaa32-5e2c-4f34-b220-18e23903cb70}, !- Handle
  Zone HVAC Equipment List 2,             !- Name
  {4aad633f-ed48-4cf9-bd0d-138246a3ef6c}; !- Thermal Zone

OS:Space,
  {bf7084de-8d88-4513-8306-922d82d135a1}, !- Handle
  garage space,                           !- Name
  {36887ddc-f215-4c3e-ab88-256284a6aa0e}, !- Space Type Name
  ,                                       !- Default Construction Set Name
  ,                                       !- Default Schedule Set Name
  -0,                                     !- Direction of Relative North {deg}
  0,                                      !- X Origin {m}
  0,                                      !- Y Origin {m}
  0,                                      !- Z Origin {m}
  ,                                       !- Building Story Name
  {4aad633f-ed48-4cf9-bd0d-138246a3ef6c}; !- Thermal Zone Name

OS:Surface,
  {bc06a0ac-991e-459f-8e26-e4a360620c97}, !- Handle
  Surface 1,                              !- Name
  Floor,                                  !- Surface Type
  {8cc22b5e-6d98-4bf6-9ba0-454facaf8704}, !- Construction Name
  {bf7084de-8d88-4513-8306-922d82d135a1}, !- Space Name
  Foundation,                             !- Outside Boundary Condition
  {1da20cc0-bfc6-4343-84db-10496e18e2a3}, !- Outside Boundary Condition Object
  NoSun,                                  !- Sun Exposure
  NoWind,                                 !- Wind Exposure
  ,                                       !- View Factor to Ground
  ,                                       !- Number of Vertices
  8.91701625975123, -3.048, 0,            !- X,Y,Z Vertex 1 {m}
  8.91701625975123, 3.048, 0,             !- X,Y,Z Vertex 2 {m}
  12.5746162597512, 3.048, 0,             !- X,Y,Z Vertex 3 {m}
  12.5746162597512, -3.048, 0;            !- X,Y,Z Vertex 4 {m}

OS:Surface,
  {d6abf62b-1d23-451f-883f-00a82dea9848}, !- Handle
  Surface 2,                              !- Name
  Wall,                                   !- Surface Type
  {610a4902-72b3-4231-bae2-9dd8bfb3cdea}, !- Construction Name
  {bf7084de-8d88-4513-8306-922d82d135a1}, !- Space Name
  Surface,                                !- Outside Boundary Condition
  {037ec9b1-25ea-47c9-b1e7-4b42ea438323}, !- Outside Boundary Condition Object
  NoSun,                                  !- Sun Exposure
  NoWind,                                 !- Wind Exposure
  ,                                       !- View Factor to Ground
  ,                                       !- Number of Vertices
  8.91701625975123, 3.048, 2.4384,        !- X,Y,Z Vertex 1 {m}
  8.91701625975123, 3.048, 0,             !- X,Y,Z Vertex 2 {m}
  8.91701625975123, 0, 0,                 !- X,Y,Z Vertex 3 {m}
  8.91701625975123, 0, 2.4384;            !- X,Y,Z Vertex 4 {m}

OS:Surface,
  {0586cbf1-23e0-4888-9f64-e7e4c9ad7741}, !- Handle
  Surface 3,                              !- Name
  Wall,                                   !- Surface Type
  {610a4902-72b3-4231-bae2-9dd8bfb3cdea}, !- Construction Name
  {bf7084de-8d88-4513-8306-922d82d135a1}, !- Space Name
  Surface,                                !- Outside Boundary Condition
  {93d06a7b-1098-498f-a5db-0c39e4b3827b}, !- Outside Boundary Condition Object
  NoSun,                                  !- Sun Exposure
  NoWind,                                 !- Wind Exposure
  ,                                       !- View Factor to Ground
  ,                                       !- Number of Vertices
  12.5746162597512, 3.048, 2.4384,        !- X,Y,Z Vertex 1 {m}
  12.5746162597512, 3.048, 0,             !- X,Y,Z Vertex 2 {m}
  8.91701625975123, 3.048, 0,             !- X,Y,Z Vertex 3 {m}
  8.91701625975123, 3.048, 2.4384;        !- X,Y,Z Vertex 4 {m}

OS:Surface,
  {74fe02f4-a9f0-4098-b711-441e754a541e}, !- Handle
  Surface 4,                              !- Name
  Wall,                                   !- Surface Type
  {c8b90a91-56a3-4532-b81f-64b2f6a89ebc}, !- Construction Name
  {bf7084de-8d88-4513-8306-922d82d135a1}, !- Space Name
  Outdoors,                               !- Outside Boundary Condition
  ,                                       !- Outside Boundary Condition Object
  SunExposed,                             !- Sun Exposure
  WindExposed,                            !- Wind Exposure
  ,                                       !- View Factor to Ground
  ,                                       !- Number of Vertices
  12.5746162597512, -3.048, 2.4384,       !- X,Y,Z Vertex 1 {m}
  12.5746162597512, -3.048, 0,            !- X,Y,Z Vertex 2 {m}
  12.5746162597512, 3.048, 0,             !- X,Y,Z Vertex 3 {m}
  12.5746162597512, 3.048, 2.4384;        !- X,Y,Z Vertex 4 {m}

OS:Surface,
  {bce494e8-7207-4230-a4b6-811c4f802109}, !- Handle
  Surface 5,                              !- Name
  Wall,                                   !- Surface Type
  {c8b90a91-56a3-4532-b81f-64b2f6a89ebc}, !- Construction Name
  {bf7084de-8d88-4513-8306-922d82d135a1}, !- Space Name
  Outdoors,                               !- Outside Boundary Condition
  ,                                       !- Outside Boundary Condition Object
  SunExposed,                             !- Sun Exposure
  WindExposed,                            !- Wind Exposure