!- NOTE: Auto-generated from /test/osw_files/SFD_2000sqft_2story_SL_UA_Windows.osw

OS:Version,
  {d2dbd281-75b6-44af-bada-57ef2c582e0a}, !- Handle
  2.9.0;                                  !- Version Identifier

OS:SimulationControl,
  {76e7876f-1203-450c-8172-ad052d66459d}, !- Handle
  ,                                       !- Do Zone Sizing Calculation
  ,                                       !- Do System Sizing Calculation
  ,                                       !- Do Plant Sizing Calculation
  No;                                     !- Run Simulation for Sizing Periods

OS:Timestep,
  {30751752-fcd8-4440-b280-ff8b3d216d15}, !- Handle
  6;                                      !- Number of Timesteps per Hour

OS:ShadowCalculation,
  {d15c1639-fe8e-432c-bba1-0d6981483287}, !- Handle
  20,                                     !- Calculation Frequency
  200;                                    !- Maximum Figures in Shadow Overlap Calculations

OS:SurfaceConvectionAlgorithm:Outside,
  {5d404061-4b6e-46fe-b97c-061bfa316511}, !- Handle
  DOE-2;                                  !- Algorithm

OS:SurfaceConvectionAlgorithm:Inside,
  {be3a4790-68ba-4f3a-95bf-305f752785ae}, !- Handle
  TARP;                                   !- Algorithm

OS:ZoneCapacitanceMultiplier:ResearchSpecial,
  {ac4838c6-1107-4ce0-83f0-c3841da0fe3b}, !- Handle
  ,                                       !- Temperature Capacity Multiplier
  15,                                     !- Humidity Capacity Multiplier
  ;                                       !- Carbon Dioxide Capacity Multiplier

OS:RunPeriod,
  {95dbdf3c-c1a0-432a-8709-555eefea0c82}, !- Handle
  Run Period 1,                           !- Name
  1,                                      !- Begin Month
  1,                                      !- Begin Day of Month
  12,                                     !- End Month
  31,                                     !- End Day of Month
  ,                                       !- Use Weather File Holidays and Special Days
  ,                                       !- Use Weather File Daylight Saving Period
  ,                                       !- Apply Weekend Holiday Rule
  ,                                       !- Use Weather File Rain Indicators
  ,                                       !- Use Weather File Snow Indicators
  ;                                       !- Number of Times Runperiod to be Repeated

OS:YearDescription,
  {4e0053b1-eaba-4144-8e1e-af9e7cbd93a6}, !- Handle
  2007,                                   !- Calendar Year
  ,                                       !- Day of Week for Start Day
  ;                                       !- Is Leap Year

OS:ThermalZone,
  {aa47077b-d052-455f-9e86-6ea3f8c46e04}, !- Handle
  living zone,                            !- Name
  ,                                       !- Multiplier
  ,                                       !- Ceiling Height {m}
  ,                                       !- Volume {m3}
  ,                                       !- Floor Area {m2}
  ,                                       !- Zone Inside Convection Algorithm
  ,                                       !- Zone Outside Convection Algorithm
  ,                                       !- Zone Conditioning Equipment List Name
  {24af94ae-9d55-4e7a-8491-54a92184d066}, !- Zone Air Inlet Port List
  {02c629cd-06a5-4e8e-a860-e6593451f921}, !- Zone Air Exhaust Port List
  {0277c9a1-bf12-4957-87ba-59ffa0264da2}, !- Zone Air Node Name
  {d4e21527-4eb7-4619-914f-697f7542318d}, !- Zone Return Air Port List
  ,                                       !- Primary Daylighting Control Name
  ,                                       !- Fraction of Zone Controlled by Primary Daylighting Control
  ,                                       !- Secondary Daylighting Control Name
  ,                                       !- Fraction of Zone Controlled by Secondary Daylighting Control
  ,                                       !- Illuminance Map Name
  ,                                       !- Group Rendering Name
  ,                                       !- Thermostat Name
  No;                                     !- Use Ideal Air Loads

OS:Node,
  {e84c70d9-3b10-423d-aed9-a4721b1b9a19}, !- Handle
  Node 1,                                 !- Name
  {0277c9a1-bf12-4957-87ba-59ffa0264da2}, !- Inlet Port
  ;                                       !- Outlet Port

OS:Connection,
  {0277c9a1-bf12-4957-87ba-59ffa0264da2}, !- Handle
  {f176aac1-1b96-4ebf-b528-c478c72a6fa9}, !- Name
  {aa47077b-d052-455f-9e86-6ea3f8c46e04}, !- Source Object
  11,                                     !- Outlet Port
  {e84c70d9-3b10-423d-aed9-a4721b1b9a19}, !- Target Object
  2;                                      !- Inlet Port

OS:PortList,
  {24af94ae-9d55-4e7a-8491-54a92184d066}, !- Handle
  {b97b7d67-2bd9-424a-ade3-f76224ffd262}, !- Name
  {aa47077b-d052-455f-9e86-6ea3f8c46e04}; !- HVAC Component

OS:PortList,
  {02c629cd-06a5-4e8e-a860-e6593451f921}, !- Handle
  {15307526-5fde-42a5-8cfd-43162f3fd539}, !- Name
  {aa47077b-d052-455f-9e86-6ea3f8c46e04}; !- HVAC Component

OS:PortList,
  {d4e21527-4eb7-4619-914f-697f7542318d}, !- Handle
  {9c432486-3675-49a4-8718-4a04f15864ce}, !- Name
  {aa47077b-d052-455f-9e86-6ea3f8c46e04}; !- HVAC Component

OS:Sizing:Zone,
  {958ec4fd-d086-42be-9c56-08287ec72b41}, !- Handle
  {aa47077b-d052-455f-9e86-6ea3f8c46e04}, !- Zone or ZoneList Name
  SupplyAirTemperature,                   !- Zone Cooling Design Supply Air Temperature Input Method
  14,                                     !- Zone Cooling Design Supply Air Temperature {C}
  11.11,                                  !- Zone Cooling Design Supply Air Temperature Difference {deltaC}
  SupplyAirTemperature,                   !- Zone Heating Design Supply Air Temperature Input Method
  40,                                     !- Zone Heating Design Supply Air Temperature {C}
  11.11,                                  !- Zone Heating Design Supply Air Temperature Difference {deltaC}
  0.0085,                                 !- Zone Cooling Design Supply Air Humidity Ratio {kg-H2O/kg-air}
  0.008,                                  !- Zone Heating Design Supply Air Humidity Ratio {kg-H2O/kg-air}
  ,                                       !- Zone Heating Sizing Factor
  ,                                       !- Zone Cooling Sizing Factor
  DesignDay,                              !- Cooling Design Air Flow Method
  ,                                       !- Cooling Design Air Flow Rate {m3/s}
  ,                                       !- Cooling Minimum Air Flow per Zone Floor Area {m3/s-m2}
  ,                                       !- Cooling Minimum Air Flow {m3/s}
  ,                                       !- Cooling Minimum Air Flow Fraction
  DesignDay,                              !- Heating Design Air Flow Method
  ,                                       !- Heating Design Air Flow Rate {m3/s}
  ,                                       !- Heating Maximum Air Flow per Zone Floor Area {m3/s-m2}
  ,                                       !- Heating Maximum Air Flow {m3/s}
  ,                                       !- Heating Maximum Air Flow Fraction
  ,                                       !- Design Zone Air Distribution Effectiveness in Cooling Mode
  ,                                       !- Design Zone Air Distribution Effectiveness in Heating Mode
  No,                                     !- Account for Dedicated Outdoor Air System
  NeutralSupplyAir,                       !- Dedicated Outdoor Air System Control Strategy
  autosize,                               !- Dedicated Outdoor Air Low Setpoint Temperature for Design {C}
  autosize;                               !- Dedicated Outdoor Air High Setpoint Temperature for Design {C}

OS:ZoneHVAC:EquipmentList,
  {f7e32a16-ccce-43c2-b0fa-7642ee282253}, !- Handle
  Zone HVAC Equipment List 1,             !- Name
  {aa47077b-d052-455f-9e86-6ea3f8c46e04}; !- Thermal Zone

OS:Space,
  {e6122135-d512-4cd8-8018-ba6d6781d828}, !- Handle
  living space,                           !- Name
  {823f103f-888a-4c5a-8ddc-dc0e8b66b5aa}, !- Space Type Name
  ,                                       !- Default Construction Set Name
  ,                                       !- Default Schedule Set Name
  -0,                                     !- Direction of Relative North {deg}
  0,                                      !- X Origin {m}
  0,                                      !- Y Origin {m}
  0,                                      !- Z Origin {m}
  ,                                       !- Building Story Name
  {aa47077b-d052-455f-9e86-6ea3f8c46e04}, !- Thermal Zone Name
  ,                                       !- Part of Total Floor Area
  ,                                       !- Design Specification Outdoor Air Object Name
  {7df87fd6-2415-49e9-be1e-e97d90f64efd}; !- Building Unit Name

OS:Surface,
  {62ee4325-9640-40c2-bb0f-4d74bbd26f37}, !- Handle
  Surface 1,                              !- Name
  Floor,                                  !- Surface Type
  ,                                       !- Construction Name
  {e6122135-d512-4cd8-8018-ba6d6781d828}, !- Space Name
  Foundation,                             !- Outside Boundary Condition
  ,                                       !- Outside Boundary Condition Object
  NoSun,                                  !- Sun Exposure
  NoWind,                                 !- Wind Exposure
  ,                                       !- View Factor to Ground
  ,                                       !- Number of Vertices
  0, 0, 0,                                !- X,Y,Z Vertex 1 {m}
  0, 6.81553519541936, 0,                 !- X,Y,Z Vertex 2 {m}
  13.6310703908387, 6.81553519541936, 0,  !- X,Y,Z Vertex 3 {m}
  13.6310703908387, 0, 0;                 !- X,Y,Z Vertex 4 {m}

OS:Surface,
  {61f26c6c-39b5-4e6b-9dd2-d8be5a015182}, !- Handle
  Surface 2,                              !- Name
  Wall,                                   !- Surface Type
  ,                                       !- Construction Name
  {e6122135-d512-4cd8-8018-ba6d6781d828}, !- Space Name
  Outdoors,                               !- Outside Boundary Condition
  ,                                       !- Outside Boundary Condition Object
  SunExposed,                             !- Sun Exposure
  WindExposed,                            !- Wind Exposure
  ,                                       !- View Factor to Ground
  ,                                       !- Number of Vertices
  0, 6.81553519541936, 2.4384,            !- X,Y,Z Vertex 1 {m}
  0, 6.81553519541936, 0,                 !- X,Y,Z Vertex 2 {m}
  0, 0, 0,                                !- X,Y,Z Vertex 3 {m}
  0, 0, 2.4384;                           !- X,Y,Z Vertex 4 {m}

OS:Surface,
  {55ce67d0-6378-4c5a-b9eb-fa264333af75}, !- Handle
  Surface 3,                              !- Name
  Wall,                                   !- Surface Type
  ,                                       !- Construction Name
  {e6122135-d512-4cd8-8018-ba6d6781d828}, !- Space Name
  Outdoors,                               !- Outside Boundary Condition
  ,                                       !- Outside Boundary Condition Object
  SunExposed,                             !- Sun Exposure
  WindExposed,                            !- Wind Exposure
  ,                                       !- View Factor to Ground
  ,                                       !- Number of Vertices
  13.6310703908387, 6.81553519541936, 2.4384, !- X,Y,Z Vertex 1 {m}
  13.6310703908387, 6.81553519541936, 0,  !- X,Y,Z Vertex 2 {m}
  0, 6.81553519541936, 0,                 !- X,Y,Z Vertex 3 {m}
  0, 6.81553519541936, 2.4384;            !- X,Y,Z Vertex 4 {m}

OS:Surface,
  {0d55c780-464f-4a9a-bf56-111c58438fab}, !- Handle
  Surface 4,                              !- Name
  Wall,                                   !- Surface Type
  ,                                       !- Construction Name
  {e6122135-d512-4cd8-8018-ba6d6781d828}, !- Space Name
  Outdoors,                               !- Outside Boundary Condition
  ,                                       !- Outside Boundary Condition Object
  SunExposed,                             !- Sun Exposure
  WindExposed,                            !- Wind Exposure
  ,                                       !- View Factor to Ground
  ,                                       !- Number of Vertices
  13.6310703908387, 0, 2.4384,            !- X,Y,Z Vertex 1 {m}
  13.6310703908387, 0, 0,                 !- X,Y,Z Vertex 2 {m}
  13.6310703908387, 6.81553519541936, 0,  !- X,Y,Z Vertex 3 {m}
  13.6310703908387, 6.81553519541936, 2.4384; !- X,Y,Z Vertex 4 {m}

OS:Surface,
  {82909206-f5d3-4ec9-b453-3f1462018772}, !- Handle
  Surface 5,                              !- Name
  Wall,                                   !- Surface Type
  ,                                       !- Construction Name
  {e6122135-d512-4cd8-8018-ba6d6781d828}, !- Space Name
  Outdoors,                               !- Outside Boundary Condition
  ,                                       !- Outside Boundary Condition Object
  SunExposed,                             !- Sun Exposure
  WindExposed,                            !- Wind Exposure
  ,                                       !- View Factor to Ground
  ,                                       !- Number of Vertices
  0, 0, 2.4384,                           !- X,Y,Z Vertex 1 {m}
  0, 0, 0,                                !- X,Y,Z Vertex 2 {m}
  13.6310703908387, 0, 0,                 !- X,Y,Z Vertex 3 {m}
  13.6310703908387, 0, 2.4384;            !- X,Y,Z Vertex 4 {m}

OS:Surface,
  {fc70a538-9b87-4cf5-a383-249915a555e9}, !- Handle
  Surface 6,                              !- Name
  RoofCeiling,                            !- Surface Type
  ,                                       !- Construction Name
  {e6122135-d512-4cd8-8018-ba6d6781d828}, !- Space Name
  Surface,                                !- Outside Boundary Condition
  {5d2c2c74-4a01-40ec-9afa-c1071a0bfa83}, !- Outside Boundary Condition Object
  NoSun,                                  !- Sun Exposure
  NoWind,                                 !- Wind Exposure
  ,                                       !- View Factor to Ground
  ,                                       !- Number of Vertices
  13.6310703908387, 0, 2.4384,            !- X,Y,Z Vertex 1 {m}
  13.6310703908387, 6.81553519541936, 2.4384, !- X,Y,Z Vertex 2 {m}
  0, 6.81553519541936, 2.4384,            !- X,Y,Z Vertex 3 {m}
  0, 0, 2.4384;                           !- X,Y,Z Vertex 4 {m}

OS:SpaceType,
  {823f103f-888a-4c5a-8ddc-dc0e8b66b5aa}, !- Handle
  Space Type 1,                           !- Name
  ,                                       !- Default Construction Set Name
  ,                                       !- Default Schedule Set Name
  ,                                       !- Group Rendering Name
  ,                                       !- Design Specification Outdoor Air Object Name
  ,                                       !- Standards Template
  ,                                       !- Standards Building Type
  living;                                 !- Standards Space Type

OS:Space,
  {feb68c98-8f82-407c-bc9b-d0fc3a2210fe}, !- Handle
  living space|story 2,                   !- Name
  {823f103f-888a-4c5a-8ddc-dc0e8b66b5aa}, !- Space Type Name
  ,                                       !- Default Construction Set Name
  ,                                       !- Default Schedule Set Name
  -0,                                     !- Direction of Relative North {deg}
  0,                                      !- X Origin {m}
  0,                                      !- Y Origin {m}
  2.4384,                                 !- Z Origin {m}
  ,                                       !- Building Story Name
  {aa47077b-d052-455f-9e86-6ea3f8c46e04}, !- Thermal Zone Name
  ,                                       !- Part of Total Floor Area
  ,                                       !- Design Specification Outdoor Air Object Name
  {7df87fd6-2415-49e9-be1e-e97d90f64efd}; !- Building Unit Name

OS:Surface,
  {5d2c2c74-4a01-40ec-9afa-c1071a0bfa83}, !- Handle
  Surface 7,                              !- Name
  Floor,                                  !- Surface Type
  ,                                       !- Construction Name
  {feb68c98-8f82-407c-bc9b-d0fc3a2210fe}, !- Space Name
  Surface,                                !- Outside Boundary Condition
  {fc70a538-9b87-4cf5-a383-249915a555e9}, !- Outside Boundary Condition Object
  NoSun,                                  !- Sun Exposure
  NoWind,                                 !- Wind Exposure
  ,                                       !- View Factor to Ground
  ,                                       !- Number of Vertices
  0, 0, 0,                                !- X,Y,Z Vertex 1 {m}
  0, 6.81553519541936, 0,                 !- X,Y,Z Vertex 2 {m}
  13.6310703908387, 6.81553519541936, 0,  !- X,Y,Z Vertex 3 {m}
  13.6310703908387, 0, 0;                 !- X,Y,Z Vertex 4 {m}

OS:Surface,
  {6cd9e878-8c65-47d9-9ca1-d4de9880eb0e}, !- Handle
  Surface 8,                              !- Name
  Wall,                                   !- Surface Type
  ,                                       !- Construction Name
  {feb68c98-8f82-407c-bc9b-d0fc3a2210fe}, !- Space Name
  Outdoors,                               !- Outside Boundary Condition
  ,                                       !- Outside Boundary Condition Object
  SunExposed,                             !- Sun Exposure
  WindExposed,                            !- Wind Exposure
  ,                                       !- View Factor to Ground
  ,                                       !- Number of Vertices
  0, 6.81553519541936, 2.4384,            !- X,Y,Z Vertex 1 {m}
  0, 6.81553519541936, 0,                 !- X,Y,Z Vertex 2 {m}
  0, 0, 0,                                !- X,Y,Z Vertex 3 {m}
  0, 0, 2.4384;                           !- X,Y,Z Vertex 4 {m}

OS:Surface,
  {64fd20c1-84d6-4bbe-820d-7c911dffa7eb}, !- Handle
  Surface 9,                              !- Name
  Wall,                                   !- Surface Type
  ,                                       !- Construction Name
  {feb68c98-8f82-407c-bc9b-d0fc3a2210fe}, !- Space Name
  Outdoors,                               !- Outside Boundary Condition
  ,                                       !- Outside Boundary Condition Object
  SunExposed,                             !- Sun Exposure
  WindExposed,                            !- Wind Exposure
  ,                                       !- View Factor to Ground
  ,                                       !- Number of Vertices
  13.6310703908387, 6.81553519541936, 2.4384, !- X,Y,Z Vertex 1 {m}
  13.6310703908387, 6.81553519541936, 0,  !- X,Y,Z Vertex 2 {m}
  0, 6.81553519541936, 0,                 !- X,Y,Z Vertex 3 {m}
  0, 6.81553519541936, 2.4384;            !- X,Y,Z Vertex 4 {m}

OS:Surface,
  {4c479780-491f-4879-be86-d20f2331b75d}, !- Handle
  Surface 10,                             !- Name
  Wall,                                   !- Surface Type
  ,                                       !- Construction Name
  {feb68c98-8f82-407c-bc9b-d0fc3a2210fe}, !- Space Name
  Outdoors,                               !- Outside Boundary Condition
  ,                                       !- Outside Boundary Condition Object
  SunExposed,                             !- Sun Exposure
  WindExposed,                            !- Wind Exposure
  ,                                       !- View Factor to Ground
  ,                                       !- Number of Vertices
  13.6310703908387, 0, 2.4384,            !- X,Y,Z Vertex 1 {m}
  13.6310703908387, 0, 0,                 !- X,Y,Z Vertex 2 {m}
  13.6310703908387, 6.81553519541936, 0,  !- X,Y,Z Vertex 3 {m}
  13.6310703908387, 6.81553519541936, 2.4384; !- X,Y,Z Vertex 4 {m}

OS:Surface,
  {d4f8e8d7-e947-48ac-97e9-447ada4467e0}, !- Handle
  Surface 11,                             !- Name
  Wall,                                   !- Surface Type
  ,                                       !- Construction Name
  {feb68c98-8f82-407c-bc9b-d0fc3a2210fe}, !- Space Name
  Outdoors,                               !- Outside Boundary Condition
  ,                                       !- Outside Boundary Condition Object
  SunExposed,                             !- Sun Exposure
  WindExposed,                            !- Wind Exposure
  ,                                       !- View Factor to Ground
  ,                                       !- Number of Vertices
  0, 0, 2.4384,                           !- X,Y,Z Vertex 1 {m}
  0, 0, 0,                                !- X,Y,Z Vertex 2 {m}
  13.6310703908387, 0, 0,                 !- X,Y,Z Vertex 3 {m}
  13.6310703908387, 0, 2.4384;            !- X,Y,Z Vertex 4 {m}

OS:Surface,
  {c2adf93d-e4d3-413d-ad8d-a843575bc2ec}, !- Handle
  Surface 12,                             !- Name
  RoofCeiling,                            !- Surface Type
  ,                                       !- Construction Name
  {feb68c98-8f82-407c-bc9b-d0fc3a2210fe}, !- Space Name
  Surface,                                !- Outside Boundary Condition
  {5b05b931-df27-4e50-bbbe-ec1c794b6445}, !- Outside Boundary Condition Object
  NoSun,                                  !- Sun Exposure
  NoWind,                                 !- Wind Exposure
  ,                                       !- View Factor to Ground
  ,                                       !- Number of Vertices
  13.6310703908387, 0, 2.4384,            !- X,Y,Z Vertex 1 {m}
  13.6310703908387, 6.81553519541936, 2.4384, !- X,Y,Z Vertex 2 {m}
  0, 6.81553519541936, 2.4384,            !- X,Y,Z Vertex 3 {m}
  0, 0, 2.4384;                           !- X,Y,Z Vertex 4 {m}

OS:Surface,
  {5b05b931-df27-4e50-bbbe-ec1c794b6445}, !- Handle
  Surface 13,                             !- Name
  Floor,                                  !- Surface Type
  ,                                       !- Construction Name
  {2ec0f710-d3f1-414c-9644-e24406b31f24}, !- Space Name
  Surface,                                !- Outside Boundary Condition
  {c2adf93d-e4d3-413d-ad8d-a843575bc2ec}, !- Outside Boundary Condition Object
  NoSun,                                  !- Sun Exposure
  NoWind,                                 !- Wind Exposure
  ,                                       !- View Factor to Ground
  ,                                       !- Number of Vertices
  0, 6.81553519541936, 0,                 !- X,Y,Z Vertex 1 {m}
  13.6310703908387, 6.81553519541936, 0,  !- X,Y,Z Vertex 2 {m}
  13.6310703908387, 0, 0,                 !- X,Y,Z Vertex 3 {m}
  0, 0, 0;                                !- X,Y,Z Vertex 4 {m}

OS:Surface,
  {6b2f7144-78c4-4805-b5c3-b886853d9753}, !- Handle
  Surface 14,                             !- Name
  RoofCeiling,                            !- Surface Type
  ,                                       !- Construction Name
  {2ec0f710-d3f1-414c-9644-e24406b31f24}, !- Space Name
  Outdoors,                               !- Outside Boundary Condition
  ,                                       !- Outside Boundary Condition Object
  SunExposed,                             !- Sun Exposure
  WindExposed,                            !- Wind Exposure
  ,                                       !- View Factor to Ground
  ,                                       !- Number of Vertices
  13.6310703908387, 3.40776759770968, 2.00868379885484, !- X,Y,Z Vertex 1 {m}
  0, 3.40776759770968, 2.00868379885484,  !- X,Y,Z Vertex 2 {m}
  0, 0, 0.3048,                           !- X,Y,Z Vertex 3 {m}
  13.6310703908387, 0, 0.3048;            !- X,Y,Z Vertex 4 {m}

OS:Surface,
  {c751ee57-bea1-4b46-ace1-38298a206762}, !- Handle
  Surface 15,                             !- Name
  RoofCeiling,                            !- Surface Type
  ,                                       !- Construction Name
  {2ec0f710-d3f1-414c-9644-e24406b31f24}, !- Space Name
  Outdoors,                               !- Outside Boundary Condition
  ,                                       !- Outside Boundary Condition Object
  SunExposed,                             !- Sun Exposure
  WindExposed,                            !- Wind Exposure
  ,                                       !- View Factor to Ground
  ,                                       !- Number of Vertices
  0, 3.40776759770968, 2.00868379885484,  !- X,Y,Z Vertex 1 {m}
  13.6310703908387, 3.40776759770968, 2.00868379885484, !- X,Y,Z Vertex 2 {m}
  13.6310703908387, 6.81553519541936, 0.3048, !- X,Y,Z Vertex 3 {m}
  0, 6.81553519541936, 0.3048;            !- X,Y,Z Vertex 4 {m}

OS:Surface,
  {5add6eca-9e9f-4403-8abf-f81bf5d7e7d7}, !- Handle
  Surface 16,                             !- Name
  Wall,                                   !- Surface Type
  ,                                       !- Construction Name
  {2ec0f710-d3f1-414c-9644-e24406b31f24}, !- Space Name
  Outdoors,                               !- Outside Boundary Condition
  ,                                       !- Outside Boundary Condition Object
  SunExposed,                             !- Sun Exposure
  WindExposed,                            !- Wind Exposure
  ,                                       !- View Factor to Ground
  ,                                       !- Number of Vertices
  0, 3.40776759770968, 1.70388379885484,  !- X,Y,Z Vertex 1 {m}
  0, 6.81553519541936, 0,                 !- X,Y,Z Vertex 2 {m}
  0, 0, 0;                                !- X,Y,Z Vertex 3 {m}

OS:Surface,
  {780503bf-30ca-43e1-a4c7-a58defa7e863}, !- Handle
  Surface 17,                             !- Name
  Wall,                                   !- Surface Type
  ,                                       !- Construction Name
  {2ec0f710-d3f1-414c-9644-e24406b31f24}, !- Space Name
  Outdoors,                               !- Outside Boundary Condition
  ,                                       !- Outside Boundary Condition Object
  SunExposed,                             !- Sun Exposure
  WindExposed,                            !- Wind Exposure
  ,                                       !- View Factor to Ground
  ,                                       !- Number of Vertices
  13.6310703908387, 3.40776759770968, 1.70388379885484, !- X,Y,Z Vertex 1 {m}
  13.6310703908387, 0, 0,                 !- X,Y,Z Vertex 2 {m}
  13.6310703908387, 6.81553519541936, 0;  !- X,Y,Z Vertex 3 {m}

OS:Space,
  {2ec0f710-d3f1-414c-9644-e24406b31f24}, !- Handle
  unfinished attic space,                 !- Name
  {0b33fbe4-6cf0-428c-ab57-a4f548d0cf1d}, !- Space Type Name
  ,                                       !- Default Construction Set Name
  ,                                       !- Default Schedule Set Name
  -0,                                     !- Direction of Relative North {deg}
  0,                                      !- X Origin {m}
  0,                                      !- Y Origin {m}
  4.8768,                                 !- Z Origin {m}
  ,                                       !- Building Story Name
  {3a204ffd-d4b9-4389-b907-417de45f4046}; !- Thermal Zone Name

OS:ThermalZone,
  {3a204ffd-d4b9-4389-b907-417de45f4046}, !- Handle
  unfinished attic zone,                  !- Name
  ,                                       !- Multiplier
  ,                                       !- Ceiling Height {m}
  ,                                       !- Volume {m3}
  ,                                       !- Floor Area {m2}
  ,                                       !- Zone Inside Convection Algorithm
  ,                                       !- Zone Outside Convection Algorithm
  ,                                       !- Zone Conditioning Equipment List Name
  {7bae77e9-aee8-4375-a366-25d4a63c0a24}, !- Zone Air Inlet Port List
  {6414f49a-f238-4475-ae70-681802fa0b26}, !- Zone Air Exhaust Port List
  {873fd8ea-7e69-4b90-8fef-e9b8313afd01}, !- Zone Air Node Name
  {409900dc-a08d-49db-9795-2ec871c12380}, !- Zone Return Air Port List
  ,                                       !- Primary Daylighting Control Name
  ,                                       !- Fraction of Zone Controlled by Primary Daylighting Control
  ,                                       !- Secondary Daylighting Control Name
  ,                                       !- Fraction of Zone Controlled by Secondary Daylighting Control
  ,                                       !- Illuminance Map Name
  ,                                       !- Group Rendering Name
  ,                                       !- Thermostat Name
  No;                                     !- Use Ideal Air Loads

OS:Node,
  {6df1e0c5-3d68-4779-acaf-e27470320eed}, !- Handle
  Node 2,                                 !- Name
  {873fd8ea-7e69-4b90-8fef-e9b8313afd01}, !- Inlet Port
  ;                                       !- Outlet Port

OS:Connection,
  {873fd8ea-7e69-4b90-8fef-e9b8313afd01}, !- Handle
  {9d4c157c-990c-4758-bd7c-56cfe50a01f7}, !- Name
  {3a204ffd-d4b9-4389-b907-417de45f4046}, !- Source Object
  11,                                     !- Outlet Port
  {6df1e0c5-3d68-4779-acaf-e27470320eed}, !- Target Object
  2;                                      !- Inlet Port

OS:PortList,
  {7bae77e9-aee8-4375-a366-25d4a63c0a24}, !- Handle
  {ba937be2-d30a-4f6a-9f38-a14050b4adc5}, !- Name
  {3a204ffd-d4b9-4389-b907-417de45f4046}; !- HVAC Component

OS:PortList,
  {6414f49a-f238-4475-ae70-681802fa0b26}, !- Handle
  {2ba351b9-0aac-4531-9725-664cfea59ce8}, !- Name
  {3a204ffd-d4b9-4389-b907-417de45f4046}; !- HVAC Component

OS:PortList,
  {409900dc-a08d-49db-9795-2ec871c12380}, !- Handle
  {16db8892-34b4-4881-9188-c0b1d1ed6199}, !- Name
  {3a204ffd-d4b9-4389-b907-417de45f4046}; !- HVAC Component

OS:Sizing:Zone,
  {99c1d6e5-76d3-4554-939f-3fda3974b48b}, !- Handle
  {3a204ffd-d4b9-4389-b907-417de45f4046}, !- Zone or ZoneList Name