!- NOTE: Auto-generated from /test/osw_files/SFD_HVACSizing_Equip_GSHP_Fixed.osw

OS:Version,
  {228f2283-279c-449e-9a84-a1e37603af53}, !- Handle
  2.9.0;                                  !- Version Identifier

OS:SimulationControl,
  {51cbc0ac-ccfb-4daf-b3cb-694614791f04}, !- Handle
  ,                                       !- Do Zone Sizing Calculation
  ,                                       !- Do System Sizing Calculation
  ,                                       !- Do Plant Sizing Calculation
  No;                                     !- Run Simulation for Sizing Periods

OS:Timestep,
  {22b72205-c7a7-4b66-b6de-21e8ff9f4a8e}, !- Handle
  6;                                      !- Number of Timesteps per Hour

OS:ShadowCalculation,
  {13dcc47d-08ec-42c2-a889-7e703d286f5e}, !- Handle
  20,                                     !- Calculation Frequency
  200;                                    !- Maximum Figures in Shadow Overlap Calculations

OS:SurfaceConvectionAlgorithm:Outside,
  {88cb120f-916e-49fa-8cdd-0a57fc57acc8}, !- Handle
  DOE-2;                                  !- Algorithm

OS:SurfaceConvectionAlgorithm:Inside,
  {e1e2a692-1391-45d6-a10c-efa394e859e7}, !- Handle
  TARP;                                   !- Algorithm

OS:ZoneCapacitanceMultiplier:ResearchSpecial,
  {105c17bb-9bb4-4000-ab46-06196a97cc20}, !- Handle
  ,                                       !- Temperature Capacity Multiplier
  15,                                     !- Humidity Capacity Multiplier
  ;                                       !- Carbon Dioxide Capacity Multiplier

OS:RunPeriod,
  {f50f127d-d5d2-45cf-9455-743228288e74}, !- Handle
  Run Period 1,                           !- Name
  1,                                      !- Begin Month
  1,                                      !- Begin Day of Month
  12,                                     !- End Month
  31,                                     !- End Day of Month
  ,                                       !- Use Weather File Holidays and Special Days
  ,                                       !- Use Weather File Daylight Saving Period
  ,                                       !- Apply Weekend Holiday Rule
  ,                                       !- Use Weather File Rain Indicators
  ,                                       !- Use Weather File Snow Indicators
  ;                                       !- Number of Times Runperiod to be Repeated

OS:YearDescription,
  {07f220bf-0901-4ab9-b7e9-427724fd26e3}, !- Handle
  2007,                                   !- Calendar Year
  ,                                       !- Day of Week for Start Day
  ;                                       !- Is Leap Year

OS:WeatherFile,
  {e14bf339-2af0-4cae-9c2d-27c7f1f5fa39}, !- Handle
  Denver Intl Ap,                         !- City
  CO,                                     !- State Province Region
  USA,                                    !- Country
  TMY3,                                   !- Data Source
  725650,                                 !- WMO Number
  39.83,                                  !- Latitude {deg}
  -104.65,                                !- Longitude {deg}
  -7,                                     !- Time Zone {hr}
  1650,                                   !- Elevation {m}
  file:../weather/USA_CO_Denver.Intl.AP.725650_TMY3.epw, !- Url
  E23378AA;                               !- Checksum

OS:AdditionalProperties,
  {575d5339-48df-4543-8152-f7e569339a4a}, !- Handle
  {e14bf339-2af0-4cae-9c2d-27c7f1f5fa39}, !- Object Name
  EPWHeaderCity,                          !- Feature Name 1
  String,                                 !- Feature Data Type 1
  Denver Intl Ap,                         !- Feature Value 1
  EPWHeaderState,                         !- Feature Name 2
  String,                                 !- Feature Data Type 2
  CO,                                     !- Feature Value 2
  EPWHeaderCountry,                       !- Feature Name 3
  String,                                 !- Feature Data Type 3
  USA,                                    !- Feature Value 3
  EPWHeaderDataSource,                    !- Feature Name 4
  String,                                 !- Feature Data Type 4
  TMY3,                                   !- Feature Value 4
  EPWHeaderStation,                       !- Feature Name 5
  String,                                 !- Feature Data Type 5
  725650,                                 !- Feature Value 5
  EPWHeaderLatitude,                      !- Feature Name 6
  Double,                                 !- Feature Data Type 6
  39.829999999999998,                     !- Feature Value 6
  EPWHeaderLongitude,                     !- Feature Name 7
  Double,                                 !- Feature Data Type 7
  -104.65000000000001,                    !- Feature Value 7
  EPWHeaderTimezone,                      !- Feature Name 8
  Double,                                 !- Feature Data Type 8
  -7,                                     !- Feature Value 8
  EPWHeaderAltitude,                      !- Feature Name 9
  Double,                                 !- Feature Data Type 9
  5413.3858267716532,                     !- Feature Value 9
  EPWHeaderLocalPressure,                 !- Feature Name 10
  Double,                                 !- Feature Data Type 10
  0.81937567683596546,                    !- Feature Value 10
  EPWHeaderRecordsPerHour,                !- Feature Name 11
  Double,                                 !- Feature Data Type 11
  0,                                      !- Feature Value 11
  EPWDataAnnualAvgDrybulb,                !- Feature Name 12
  Double,                                 !- Feature Data Type 12
  51.575616438356228,                     !- Feature Value 12
  EPWDataAnnualMinDrybulb,                !- Feature Name 13
  Double,                                 !- Feature Data Type 13
  -2.9200000000000017,                    !- Feature Value 13
  EPWDataAnnualMaxDrybulb,                !- Feature Name 14
  Double,                                 !- Feature Data Type 14
  104,                                    !- Feature Value 14
  EPWDataCDD50F,                          !- Feature Name 15
  Double,                                 !- Feature Data Type 15
  3072.2925000000005,                     !- Feature Value 15
  EPWDataCDD65F,                          !- Feature Name 16
  Double,                                 !- Feature Data Type 16
  883.62000000000035,                     !- Feature Value 16
  EPWDataHDD50F,                          !- Feature Name 17
  Double,                                 !- Feature Data Type 17
  2497.1925000000001,                     !- Feature Value 17
  EPWDataHDD65F,                          !- Feature Name 18
  Double,                                 !- Feature Data Type 18
  5783.5200000000013,                     !- Feature Value 18
  EPWDataAnnualAvgWindspeed,              !- Feature Name 19
  Double,                                 !- Feature Data Type 19
  3.9165296803649667,                     !- Feature Value 19
  EPWDataMonthlyAvgDrybulbs,              !- Feature Name 20
  String,                                 !- Feature Data Type 20
  33.4191935483871&#4431.90142857142857&#4443.02620967741937&#4442.48624999999999&#4459.877741935483854&#4473.57574999999997&#4472.07975806451608&#4472.70008064516134&#4466.49200000000006&#4450.079112903225806&#4437.218250000000005&#4434.582177419354835, !- Feature Value 20
  EPWDataGroundMonthlyTemps,              !- Feature Name 21
  String,                                 !- Feature Data Type 21
  44.08306285945173&#4440.89570904991865&#4440.64045432632048&#4442.153016571250646&#4448.225111118704206&#4454.268919273837525&#4459.508577937551024&#4462.82777283423508&#4463.10975667174995&#4460.41014950381947&#4455.304105212311526&#4449.445696474514364, !- Feature Value 21
  EPWDataWSF,                             !- Feature Name 22
  Double,                                 !- Feature Data Type 22
  0.58999999999999997,                    !- Feature Value 22
  EPWDataMonthlyAvgDailyHighDrybulbs,     !- Feature Name 23
  String,                                 !- Feature Data Type 23
  47.41032258064516&#4446.58642857142857&#4455.15032258064517&#4453.708&#4472.80193548387098&#4488.67600000000002&#4486.1858064516129&#4485.87225806451613&#4482.082&#4463.18064516129033&#4448.73400000000001&#4448.87935483870968, !- Feature Value 23
  EPWDataMonthlyAvgDailyLowDrybulbs,      !- Feature Name 24
  String,                                 !- Feature Data Type 24
  19.347741935483874&#4419.856428571428573&#4430.316129032258065&#4431.112&#4447.41612903225806&#4457.901999999999994&#4459.063870967741934&#4460.956774193548384&#4452.352000000000004&#4438.41612903225806&#4427.002000000000002&#4423.02903225806451, !- Feature Value 24
  EPWDesignHeatingDrybulb,                !- Feature Name 25
  Double,                                 !- Feature Data Type 25
  12.02,                                  !- Feature Value 25
  EPWDesignHeatingWindspeed,              !- Feature Name 26
  Double,                                 !- Feature Data Type 26
  2.8062500000000004,                     !- Feature Value 26
  EPWDesignCoolingDrybulb,                !- Feature Name 27
  Double,                                 !- Feature Data Type 27
  91.939999999999998,                     !- Feature Value 27
  EPWDesignCoolingWetbulb,                !- Feature Name 28
  Double,                                 !- Feature Data Type 28
  59.95131430195849,                      !- Feature Value 28
  EPWDesignCoolingHumidityRatio,          !- Feature Name 29
  Double,                                 !- Feature Data Type 29
  0.0059161086834698092,                  !- Feature Value 29
  EPWDesignCoolingWindspeed,              !- Feature Name 30
  Double,                                 !- Feature Data Type 30
  3.7999999999999989,                     !- Feature Value 30
  EPWDesignDailyTemperatureRange,         !- Feature Name 31
  Double,                                 !- Feature Data Type 31
  24.915483870967748,                     !- Feature Value 31
  EPWDesignDehumidDrybulb,                !- Feature Name 32
  Double,                                 !- Feature Data Type 32
  67.996785714285721,                     !- Feature Value 32
  EPWDesignDehumidHumidityRatio,          !- Feature Name 33
  Double,                                 !- Feature Data Type 33
  0.012133744170488724,                   !- Feature Value 33
  EPWDesignCoolingDirectNormal,           !- Feature Name 34
  Double,                                 !- Feature Data Type 34
  985,                                    !- Feature Value 34
  EPWDesignCoolingDiffuseHorizontal,      !- Feature Name 35
  Double,                                 !- Feature Data Type 35
  84;                                     !- Feature Value 35

OS:Site,
  {6eda32f7-7c9f-46e5-9bae-aab1636b77d2}, !- Handle
  Denver Intl Ap_CO_USA,                  !- Name
  39.83,                                  !- Latitude {deg}
  -104.65,                                !- Longitude {deg}
  -7,                                     !- Time Zone {hr}
  1650,                                   !- Elevation {m}
  Suburbs;                                !- Terrain

OS:ClimateZones,
  {8dfc47b5-0a26-4850-8585-521dd9152dd9}, !- Handle
  ,                                       !- Active Institution
  ,                                       !- Active Year
  ,                                       !- Climate Zone Institution Name 1
  ,                                       !- Climate Zone Document Name 1
  ,                                       !- Climate Zone Document Year 1
  ,                                       !- Climate Zone Value 1
  Building America,                       !- Climate Zone Institution Name 2
  ,                                       !- Climate Zone Document Name 2
  0,                                      !- Climate Zone Document Year 2
  Cold;                                   !- Climate Zone Value 2

OS:Site:WaterMainsTemperature,
  {347c732c-2e7f-4a42-890a-c811a85a9c10}, !- Handle
  Correlation,                            !- Calculation Method
  ,                                       !- Temperature Schedule Name
  10.8753424657535,                       !- Annual Average Outdoor Air Temperature {C}
  23.1524007936508;                       !- Maximum Difference In Monthly Average Outdoor Air Temperatures {deltaC}

OS:RunPeriodControl:DaylightSavingTime,
  {07c4340c-337b-476b-8c19-879138af6149}, !- Handle
  3/12,                                   !- Start Date
  11/5;                                   !- End Date

OS:Site:GroundTemperature:Deep,
  {1bb9644f-2411-43e3-9955-f83d71c60663}, !- Handle
  10.8753424657535,                       !- January Deep Ground Temperature {C}
  10.8753424657535,                       !- February Deep Ground Temperature {C}
  10.8753424657535,                       !- March Deep Ground Temperature {C}
  10.8753424657535,                       !- April Deep Ground Temperature {C}
  10.8753424657535,                       !- May Deep Ground Temperature {C}
  10.8753424657535,                       !- June Deep Ground Temperature {C}
  10.8753424657535,                       !- July Deep Ground Temperature {C}
  10.8753424657535,                       !- August Deep Ground Temperature {C}
  10.8753424657535,                       !- September Deep Ground Temperature {C}
  10.8753424657535,                       !- October Deep Ground Temperature {C}
  10.8753424657535,                       !- November Deep Ground Temperature {C}
  10.8753424657535;                       !- December Deep Ground Temperature {C}

OS:Building,
  {b65aa88f-64dc-430c-bb7a-8e1bd8c1bb13}, !- Handle
  Building 1,                             !- Name
  ,                                       !- Building Sector Type
  22.5,                                   !- North Axis {deg}
  ,                                       !- Nominal Floor to Floor Height {m}
  ,                                       !- Space Type Name
  ,                                       !- Default Construction Set Name
  ,                                       !- Default Schedule Set Name
  4,                                      !- Standards Number of Stories
  3,                                      !- Standards Number of Above Ground Stories
  ,                                       !- Standards Template
  singlefamilydetached,                   !- Standards Building Type
  1;                                      !- Standards Number of Living Units

OS:AdditionalProperties,
  {9e2ef472-f2f3-40bf-91fb-595d6e31c697}, !- Handle
  {b65aa88f-64dc-430c-bb7a-8e1bd8c1bb13}, !- Object Name
  Total Units Modeled,                    !- Feature Name 1
  Integer,                                !- Feature Data Type 1
  1,                                      !- Feature Value 1
  has_water_heater_flue,                  !- Feature Name 2
  Boolean,                                !- Feature Data Type 2
  true;                                   !- Feature Value 2

OS:ThermalZone,
  {764b7fa2-1d75-487b-a389-a0eaea9b2de5}, !- Handle
  living zone,                            !- Name
  ,                                       !- Multiplier
  ,                                       !- Ceiling Height {m}
  ,                                       !- Volume {m3}
  ,                                       !- Floor Area {m2}
  ,                                       !- Zone Inside Convection Algorithm
  ,                                       !- Zone Outside Convection Algorithm
  ,                                       !- Zone Conditioning Equipment List Name
  {a61b8ad4-7e2b-4251-bcff-484c46ca3ff4}, !- Zone Air Inlet Port List
  {43e97b61-ae6f-4a86-ae13-f4ed09426926}, !- Zone Air Exhaust Port List
  {b373732e-d819-4131-a20d-bcea4c25c34e}, !- Zone Air Node Name
  {e27bf5d7-b191-43e3-83c5-649fe89d0b93}, !- Zone Return Air Port List
  ,                                       !- Primary Daylighting Control Name
  ,                                       !- Fraction of Zone Controlled by Primary Daylighting Control
  ,                                       !- Secondary Daylighting Control Name
  ,                                       !- Fraction of Zone Controlled by Secondary Daylighting Control
  ,                                       !- Illuminance Map Name
  ,                                       !- Group Rendering Name
  {4628ca45-c91e-478e-a3f1-cd447eaa8fe3}, !- Thermostat Name
  No;                                     !- Use Ideal Air Loads

OS:Node,
  {629ae649-edd2-4ba0-9a18-a5d35e23921f}, !- Handle
  Node 1,                                 !- Name
  {b373732e-d819-4131-a20d-bcea4c25c34e}, !- Inlet Port
  ;                                       !- Outlet Port

OS:Connection,
  {b373732e-d819-4131-a20d-bcea4c25c34e}, !- Handle
  {c27106b4-f020-49f3-b596-61c0350e74b8}, !- Name
  {764b7fa2-1d75-487b-a389-a0eaea9b2de5}, !- Source Object
  11,                                     !- Outlet Port
  {629ae649-edd2-4ba0-9a18-a5d35e23921f}, !- Target Object
  2;                                      !- Inlet Port

OS:PortList,
  {a61b8ad4-7e2b-4251-bcff-484c46ca3ff4}, !- Handle
  {29ea13f0-3bee-41fa-831c-eca43ac85a6f}, !- Name
  {764b7fa2-1d75-487b-a389-a0eaea9b2de5}, !- HVAC Component
  {67e645e8-6a2a-43aa-9f6d-3b7f4214b06f}, !- Port 1
  {266d8442-df8e-45d1-9cc1-787d6b2fce7e}; !- Port 2

OS:PortList,
  {43e97b61-ae6f-4a86-ae13-f4ed09426926}, !- Handle
  {03e0ab8b-0f08-4e05-b59b-8949aa6c8f9b}, !- Name
  {764b7fa2-1d75-487b-a389-a0eaea9b2de5}; !- HVAC Component

OS:PortList,
  {e27bf5d7-b191-43e3-83c5-649fe89d0b93}, !- Handle
  {f006ffc2-48f8-4310-8320-5fce6083963b}, !- Name
  {764b7fa2-1d75-487b-a389-a0eaea9b2de5}, !- HVAC Component
  {1c843260-76f4-4806-8d13-89ddc4ed089d}, !- Port 1
  {fc7122ba-cad3-4a3f-87d8-63ca23e9c40e}; !- Port 2

OS:Sizing:Zone,
  {ea28f0be-fbcd-4403-ae85-815bcbf6af7d}, !- Handle
  {764b7fa2-1d75-487b-a389-a0eaea9b2de5}, !- Zone or ZoneList Name
  SupplyAirTemperature,                   !- Zone Cooling Design Supply Air Temperature Input Method
  14,                                     !- Zone Cooling Design Supply Air Temperature {C}
  11.11,                                  !- Zone Cooling Design Supply Air Temperature Difference {deltaC}
  SupplyAirTemperature,                   !- Zone Heating Design Supply Air Temperature Input Method
  40,                                     !- Zone Heating Design Supply Air Temperature {C}
  11.11,                                  !- Zone Heating Design Supply Air Temperature Difference {deltaC}
  0.0085,                                 !- Zone Cooling Design Supply Air Humidity Ratio {kg-H2O/kg-air}
  0.008,                                  !- Zone Heating Design Supply Air Humidity Ratio {kg-H2O/kg-air}
  ,                                       !- Zone Heating Sizing Factor
  ,                                       !- Zone Cooling Sizing Factor
  DesignDay,                              !- Cooling Design Air Flow Method
  ,                                       !- Cooling Design Air Flow Rate {m3/s}
  ,                                       !- Cooling Minimum Air Flow per Zone Floor Area {m3/s-m2}
  ,                                       !- Cooling Minimum Air Flow {m3/s}
  ,                                       !- Cooling Minimum Air Flow Fraction
  DesignDay,                              !- Heating Design Air Flow Method
  ,                                       !- Heating Design Air Flow Rate {m3/s}
  ,                                       !- Heating Maximum Air Flow per Zone Floor Area {m3/s-m2}
  ,                                       !- Heating Maximum Air Flow {m3/s}
  ,                                       !- Heating Maximum Air Flow Fraction
  ,                                       !- Design Zone Air Distribution Effectiveness in Cooling Mode
  ,                                       !- Design Zone Air Distribution Effectiveness in Heating Mode
  No,                                     !- Account for Dedicated Outdoor Air System
  NeutralSupplyAir,                       !- Dedicated Outdoor Air System Control Strategy
  autosize,                               !- Dedicated Outdoor Air Low Setpoint Temperature for Design {C}
  autosize;                               !- Dedicated Outdoor Air High Setpoint Temperature for Design {C}

OS:ZoneHVAC:EquipmentList,
  {6cb3c45a-ca70-47ad-b8c8-0ced3f908ff8}, !- Handle
  Zone HVAC Equipment List 1,             !- Name
  {764b7fa2-1d75-487b-a389-a0eaea9b2de5}, !- Thermal Zone
  SequentialLoad,                         !- Load Distribution Scheme
  {17b8d839-5b64-414b-bbb6-3da0a5116aa2}, !- Zone Equipment 1
  1,                                      !- Zone Equipment Cooling Sequence 1
  1,                                      !- Zone Equipment Heating or No-Load Sequence 1
  ,                                       !- Zone Equipment Sequential Cooling Fraction Schedule Name 1
  ,                                       !- Zone Equipment Sequential Heating Fraction Schedule Name 1
  {c65bd9e3-36f8-4f80-9236-79e91812ffc2}, !- Zone Equipment 2
  2,                                      !- Zone Equipment Cooling Sequence 2
  2,                                      !- Zone Equipment Heating or No-Load Sequence 2
  ,                                       !- Zone Equipment Sequential Cooling Fraction Schedule Name 2
  ;                                       !- Zone Equipment Sequential Heating Fraction Schedule Name 2

OS:ThermalZone,
  {e0c20cf2-d0aa-41e9-98f7-3051229f61dc}, !- Handle
  garage zone,                            !- Name
  ,                                       !- Multiplier
  ,                                       !- Ceiling Height {m}
  ,                                       !- Volume {m3}
  ,                                       !- Floor Area {m2}
  ,                                       !- Zone Inside Convection Algorithm
  ,                                       !- Zone Outside Convection Algorithm
  ,                                       !- Zone Conditioning Equipment List Name
  {9fea5673-6a08-43c9-b792-67ec25d01177}, !- Zone Air Inlet Port List
  {e3f0f96e-b89f-42fa-9814-ea4bbb0f299a}, !- Zone Air Exhaust Port List
  {3279e68f-2137-4044-8582-e4fc8b4b7a53}, !- Zone Air Node Name
  {df4e306b-2145-43e0-a410-b6d20110a833}, !- Zone Return Air Port List
  ,                                       !- Primary Daylighting Control Name
  ,                                       !- Fraction of Zone Controlled by Primary Daylighting Control
  ,                                       !- Secondary Daylighting Control Name
  ,                                       !- Fraction of Zone Controlled by Secondary Daylighting Control
  ,                                       !- Illuminance Map Name
  ,                                       !- Group Rendering Name
  ,                                       !- Thermostat Name
  No;                                     !- Use Ideal Air Loads

OS:Node,
  {94b6d9ce-0c9f-40a1-8957-99d39c8a1692}, !- Handle
  Node 2,                                 !- Name
  {3279e68f-2137-4044-8582-e4fc8b4b7a53}, !- Inlet Port
  ;                                       !- Outlet Port

OS:Connection,
  {3279e68f-2137-4044-8582-e4fc8b4b7a53}, !- Handle
  {9a3b7904-a56e-47c2-8b7f-eae0d01e5549}, !- Name
  {e0c20cf2-d0aa-41e9-98f7-3051229f61dc}, !- Source Object
  11,                                     !- Outlet Port
  {94b6d9ce-0c9f-40a1-8957-99d39c8a1692}, !- Target Object
  2;                                      !- Inlet Port

OS:PortList,
  {9fea5673-6a08-43c9-b792-67ec25d01177}, !- Handle
  {7662760b-bfc9-4181-b530-1dece373a595}, !- Name
  {e0c20cf2-d0aa-41e9-98f7-3051229f61dc}; !- HVAC Component

OS:PortList,
  {e3f0f96e-b89f-42fa-9814-ea4bbb0f299a}, !- Handle
  {94920c50-18bc-4563-932a-cb6d8352240f}, !- Name
  {e0c20cf2-d0aa-41e9-98f7-3051229f61dc}; !- HVAC Component

OS:PortList,
  {df4e306b-2145-43e0-a410-b6d20110a833}, !- Handle
  {b2e98cac-aff7-41f5-bc2e-2f44d057c7c9}, !- Name
  {e0c20cf2-d0aa-41e9-98f7-3051229f61dc}; !- HVAC Component

OS:Sizing:Zone,
  {34ffb7c7-5e8b-43ba-b40f-993d2adb2c94}, !- Handle
  {e0c20cf2-d0aa-41e9-98f7-3051229f61dc}, !- Zone or ZoneList Name
  SupplyAirTemperature,                   !- Zone Cooling Design Supply Air Temperature Input Method
  14,                                     !- Zone Cooling Design Supply Air Temperature {C}
  11.11,                                  !- Zone Cooling Design Supply Air Temperature Difference {deltaC}
  SupplyAirTemperature,                   !- Zone Heating Design Supply Air Temperature Input Method
  40,                                     !- Zone Heating Design Supply Air Temperature {C}
  11.11,                                  !- Zone Heating Design Supply Air Temperature Difference {deltaC}
  0.0085,                                 !- Zone Cooling Design Supply Air Humidity Ratio {kg-H2O/kg-air}
  0.008,                                  !- Zone Heating Design Supply Air Humidity Ratio {kg-H2O/kg-air}
  ,                                       !- Zone Heating Sizing Factor
  ,                                       !- Zone Cooling Sizing Factor
  DesignDay,                              !- Cooling Design Air Flow Method
  ,                                       !- Cooling Design Air Flow Rate {m3/s}
  ,                                       !- Cooling Minimum Air Flow per Zone Floor Area {m3/s-m2}
  ,                                       !- Cooling Minimum Air Flow {m3/s}
  ,                                       !- Cooling Minimum Air Flow Fraction
  DesignDay,                              !- Heating Design Air Flow Method
  ,                                       !- Heating Design Air Flow Rate {m3/s}
  ,                                       !- Heating Maximum Air Flow per Zone Floor Area {m3/s-m2}
  ,                                       !- Heating Maximum Air Flow {m3/s}
  ,                                       !- Heating Maximum Air Flow Fraction
  ,                                       !- Design Zone Air Distribution Effectiveness in Cooling Mode
  ,                                       !- Design Zone Air Distribution Effectiveness in Heating Mode
  No,                                     !- Account for Dedicated Outdoor Air System
  NeutralSupplyAir,                       !- Dedicated Outdoor Air System Control Strategy
  autosize,                               !- Dedicated Outdoor Air Low Setpoint Temperature for Design {C}
  autosize;                               !- Dedicated Outdoor Air High Setpoint Temperature for Design {C}

OS:ZoneHVAC:EquipmentList,
  {ae3ae85f-1d82-4ea4-b3a4-c897d9f21012}, !- Handle
  Zone HVAC Equipment List 2,             !- Name
  {e0c20cf2-d0aa-41e9-98f7-3051229f61dc}; !- Thermal Zone

OS:Space,
  {68ff34db-ce52-4b0c-80a7-1191c0c345ae}, !- Handle
  garage space,                           !- Name
  {8cf14009-bb83-421c-945c-f17bce10cbfa}, !- Space Type Name
  ,                                       !- Default Construction Set Name
  ,                                       !- Default Schedule Set Name
  -0,                                     !- Direction of Relative North {deg}
  0,                                      !- X Origin {m}
  0,                                      !- Y Origin {m}
  0,                                      !- Z Origin {m}
  ,                                       !- Building Story Name
  {e0c20cf2-d0aa-41e9-98f7-3051229f61dc}; !- Thermal Zone Name

OS:Surface,
  {ccdb8c52-72f9-4f19-9baf-e08b62bfb4a8}, !- Handle
  Surface 1,                              !- Name
  Floor,                                  !- Surface Type
  {6d5002e3-79fc-443e-8a9e-bb3031dfa5bf}, !- Construction Name
  {68ff34db-ce52-4b0c-80a7-1191c0c345ae}, !- Space Name
  Foundation,                             !- Outside Boundary Condition
  {0a955364-8819-40fb-9d94-c617e2fb180a}, !- Outside Boundary Condition Object
  NoSun,                                  !- Sun Exposure
  NoWind,                                 !- Wind Exposure
  ,                                       !- View Factor to Ground
  ,                                       !- Number of Vertices
  8.91701625975123, -3.048, 0,            !- X,Y,Z Vertex 1 {m}
  8.91701625975123, 3.048, 0,             !- X,Y,Z Vertex 2 {m}
  12.5746162597512, 3.048, 0,             !- X,Y,Z Vertex 3 {m}
  12.5746162597512, -3.048, 0;            !- X,Y,Z Vertex 4 {m}

OS:Surface,
  {3d23f9f6-f0b7-4e12-813e-8b7d246d0d02}, !- Handle
  Surface 2,                              !- Name
  Wall,                                   !- Surface Type
  {a55d88f8-4e83-4c21-97e9-165ad8662780}, !- Construction Name
  {68ff34db-ce52-4b0c-80a7-1191c0c345ae}, !- Space Name
  Surface,                                !- Outside Boundary Condition
  {0137e631-bcd2-4af5-a305-dc924e19c2b7}, !- Outside Boundary Condition Object
  NoSun,                                  !- Sun Exposure
  NoWind,                                 !- Wind Exposure
  ,                                       !- View Factor to Ground
  ,                                       !- Number of Vertices
  8.91701625975123, 3.048, 2.4384,        !- X,Y,Z Vertex 1 {m}
  8.91701625975123, 3.048, 0,             !- X,Y,Z Vertex 2 {m}
  8.91701625975123, 0, 0,                 !- X,Y,Z Vertex 3 {m}
  8.91701625975123, 0, 2.4384;            !- X,Y,Z Vertex 4 {m}

OS:Surface,
  {2137d399-d673-4ce7-8037-412a6494a0b0}, !- Handle
  Surface 3,                              !- Name
  Wall,                                   !- Surface Type
  {a55d88f8-4e83-4c21-97e9-165ad8662780}, !- Construction Name
  {68ff34db-ce52-4b0c-80a7-1191c0c345ae}, !- Space Name
  Surface,                                !- Outside Boundary Condition