!- NOTE: Auto-generated from /test/osw_files/SFD_2000sqft_2story_FB_UA_Denver_MSHP.osw

OS:Version,
  {3614df29-e625-4b02-9aa1-3a646fb54448}, !- Handle
  2.8.0;                                  !- Version Identifier

OS:SimulationControl,
  {13d186ff-a9fd-4113-81e7-e6393147a888}, !- Handle
  ,                                       !- Do Zone Sizing Calculation
  ,                                       !- Do System Sizing Calculation
  ,                                       !- Do Plant Sizing Calculation
  No;                                     !- Run Simulation for Sizing Periods

OS:Timestep,
  {1b9b560f-d9d6-4906-a49f-d7500eef824f}, !- Handle
  6;                                      !- Number of Timesteps per Hour

OS:ShadowCalculation,
  {178504ea-1b38-4786-ab1b-1f495478932d}, !- Handle
  20,                                     !- Calculation Frequency
  200;                                    !- Maximum Figures in Shadow Overlap Calculations

OS:SurfaceConvectionAlgorithm:Outside,
  {486ff597-6df1-47cc-8ce2-0cf45a856cbe}, !- Handle
  DOE-2;                                  !- Algorithm

OS:SurfaceConvectionAlgorithm:Inside,
  {53751152-2d05-4609-92d4-a77bbcfcb53b}, !- Handle
  TARP;                                   !- Algorithm

OS:ZoneCapacitanceMultiplier:ResearchSpecial,
  {edbb285c-2186-4b91-8ce0-f261f12382f6}, !- Handle
  ,                                       !- Temperature Capacity Multiplier
  15,                                     !- Humidity Capacity Multiplier
  ;                                       !- Carbon Dioxide Capacity Multiplier

OS:RunPeriod,
  {9d05e1c9-a63b-41e8-bf58-5790dccfb05b}, !- Handle
  Run Period 1,                           !- Name
  1,                                      !- Begin Month
  1,                                      !- Begin Day of Month
  12,                                     !- End Month
  31,                                     !- End Day of Month
  ,                                       !- Use Weather File Holidays and Special Days
  ,                                       !- Use Weather File Daylight Saving Period
  ,                                       !- Apply Weekend Holiday Rule
  ,                                       !- Use Weather File Rain Indicators
  ,                                       !- Use Weather File Snow Indicators
  ;                                       !- Number of Times Runperiod to be Repeated

OS:ThermalZone,
  {baa55202-5795-4b4d-a0e9-4ce97afb9fad}, !- Handle
  living zone,                            !- Name
  ,                                       !- Multiplier
  ,                                       !- Ceiling Height {m}
  ,                                       !- Volume {m3}
  ,                                       !- Floor Area {m2}
  ,                                       !- Zone Inside Convection Algorithm
  ,                                       !- Zone Outside Convection Algorithm
  ,                                       !- Zone Conditioning Equipment List Name
  {d2468ba4-3ac8-4ca8-8e37-4dd40d2926d7}, !- Zone Air Inlet Port List
  {70c584a1-5e1c-4f94-9325-99ca2e064b56}, !- Zone Air Exhaust Port List
  {a462db2d-b00a-4a1d-8333-8d8cd169f6f3}, !- Zone Air Node Name
  {7dcd63fa-1c89-4104-80cd-e9077a021e61}, !- Zone Return Air Port List
  ,                                       !- Primary Daylighting Control Name
  ,                                       !- Fraction of Zone Controlled by Primary Daylighting Control
  ,                                       !- Secondary Daylighting Control Name
  ,                                       !- Fraction of Zone Controlled by Secondary Daylighting Control
  ,                                       !- Illuminance Map Name
  ,                                       !- Group Rendering Name
  {00d8ad1e-5e30-44de-834e-7ee3dbf3d3dc}, !- Thermostat Name
  No;                                     !- Use Ideal Air Loads

OS:Node,
  {c6528d35-999e-4f52-9085-4e850bebe05b}, !- Handle
  Node 1,                                 !- Name
  {a462db2d-b00a-4a1d-8333-8d8cd169f6f3}, !- Inlet Port
  ;                                       !- Outlet Port

OS:Connection,
  {a462db2d-b00a-4a1d-8333-8d8cd169f6f3}, !- Handle
  {47581602-5946-4521-8b44-5499f04a5304}, !- Name
  {baa55202-5795-4b4d-a0e9-4ce97afb9fad}, !- Source Object
  11,                                     !- Outlet Port
  {c6528d35-999e-4f52-9085-4e850bebe05b}, !- Target Object
  2;                                      !- Inlet Port

OS:PortList,
  {d2468ba4-3ac8-4ca8-8e37-4dd40d2926d7}, !- Handle
  {82fdd818-bdc5-4aab-bb40-fcdbc5cba658}, !- Name
  {baa55202-5795-4b4d-a0e9-4ce97afb9fad}, !- HVAC Component
  {164a8f37-c020-45b8-922e-a364702b19ad}, !- Port 1
  {b2e64a55-572c-4b0a-a3a7-ace64479b3e5}; !- Port 2

OS:PortList,
  {70c584a1-5e1c-4f94-9325-99ca2e064b56}, !- Handle
  {7bef7e5a-4e52-4b16-be1e-207fa2340a4a}, !- Name
  {baa55202-5795-4b4d-a0e9-4ce97afb9fad}; !- HVAC Component

OS:PortList,
  {7dcd63fa-1c89-4104-80cd-e9077a021e61}, !- Handle
  {e6613172-1091-4b3c-a3ea-874cd8238eb0}, !- Name
  {baa55202-5795-4b4d-a0e9-4ce97afb9fad}, !- HVAC Component
  {9442423c-7f61-404a-a95c-46172c65107d}, !- Port 1
  {b279ed75-3a4a-4219-8c90-0b33cbc3f5b2}; !- Port 2

OS:Sizing:Zone,
  {ecccaafd-145c-42e8-9eeb-952169a93fc0}, !- Handle
  {baa55202-5795-4b4d-a0e9-4ce97afb9fad}, !- Zone or ZoneList Name
  SupplyAirTemperature,                   !- Zone Cooling Design Supply Air Temperature Input Method
  14,                                     !- Zone Cooling Design Supply Air Temperature {C}
  11.11,                                  !- Zone Cooling Design Supply Air Temperature Difference {deltaC}
  SupplyAirTemperature,                   !- Zone Heating Design Supply Air Temperature Input Method
  40,                                     !- Zone Heating Design Supply Air Temperature {C}
  11.11,                                  !- Zone Heating Design Supply Air Temperature Difference {deltaC}
  0.0085,                                 !- Zone Cooling Design Supply Air Humidity Ratio {kg-H2O/kg-air}
  0.008,                                  !- Zone Heating Design Supply Air Humidity Ratio {kg-H2O/kg-air}
  ,                                       !- Zone Heating Sizing Factor
  ,                                       !- Zone Cooling Sizing Factor
  DesignDay,                              !- Cooling Design Air Flow Method
  ,                                       !- Cooling Design Air Flow Rate {m3/s}
  ,                                       !- Cooling Minimum Air Flow per Zone Floor Area {m3/s-m2}
  ,                                       !- Cooling Minimum Air Flow {m3/s}
  ,                                       !- Cooling Minimum Air Flow Fraction
  DesignDay,                              !- Heating Design Air Flow Method
  ,                                       !- Heating Design Air Flow Rate {m3/s}
  ,                                       !- Heating Maximum Air Flow per Zone Floor Area {m3/s-m2}
  ,                                       !- Heating Maximum Air Flow {m3/s}
  ,                                       !- Heating Maximum Air Flow Fraction
  ,                                       !- Design Zone Air Distribution Effectiveness in Cooling Mode
  ,                                       !- Design Zone Air Distribution Effectiveness in Heating Mode
  No,                                     !- Account for Dedicated Outdoor Air System
  NeutralSupplyAir,                       !- Dedicated Outdoor Air System Control Strategy
  autosize,                               !- Dedicated Outdoor Air Low Setpoint Temperature for Design {C}
  autosize;                               !- Dedicated Outdoor Air High Setpoint Temperature for Design {C}

OS:ZoneHVAC:EquipmentList,
  {0fa65e2a-3652-4785-9e36-19070fa22291}, !- Handle
  Zone HVAC Equipment List 1,             !- Name
  {baa55202-5795-4b4d-a0e9-4ce97afb9fad}, !- Thermal Zone
  SequentialLoad,                         !- Load Distribution Scheme
  {b8f1ebbe-33e8-41d5-b0dd-dbdd73c5a7a5}, !- Zone Equipment 1
  1,                                      !- Zone Equipment Cooling Sequence 1
  1,                                      !- Zone Equipment Heating or No-Load Sequence 1
  ,                                       !- Zone Equipment Sequential Cooling Fraction 1
  ,                                       !- Zone Equipment Sequential Heating Fraction 1
  {aa87de5a-244a-4213-8462-189c4e357e1a}, !- Zone Equipment 2
  2,                                      !- Zone Equipment Cooling Sequence 2
  2,                                      !- Zone Equipment Heating or No-Load Sequence 2
  ,                                       !- Zone Equipment Sequential Cooling Fraction 2
  ;                                       !- Zone Equipment Sequential Heating Fraction 2

OS:ThermalZone,
  {70c54683-32a3-4165-8240-5dd9090ea571}, !- Handle
  garage zone,                            !- Name
  ,                                       !- Multiplier
  ,                                       !- Ceiling Height {m}
  ,                                       !- Volume {m3}
  ,                                       !- Floor Area {m2}
  ,                                       !- Zone Inside Convection Algorithm
  ,                                       !- Zone Outside Convection Algorithm
  ,                                       !- Zone Conditioning Equipment List Name
  {1b77a2a7-c68d-4c4f-a27e-0181db1b9671}, !- Zone Air Inlet Port List
  {0e87c3cb-ce6c-4cf2-b5c8-c7fa87d46010}, !- Zone Air Exhaust Port List
  {d17de55d-db04-49d0-8b06-7c42ba3dceb4}, !- Zone Air Node Name
  {c8bd5c4a-78e8-4f62-b57e-0da96d77a727}, !- Zone Return Air Port List
  ,                                       !- Primary Daylighting Control Name
  ,                                       !- Fraction of Zone Controlled by Primary Daylighting Control
  ,                                       !- Secondary Daylighting Control Name
  ,                                       !- Fraction of Zone Controlled by Secondary Daylighting Control
  ,                                       !- Illuminance Map Name
  ,                                       !- Group Rendering Name
  ,                                       !- Thermostat Name
  No;                                     !- Use Ideal Air Loads

OS:Node,
  {78a0a88e-5df6-4b0f-9da5-fb759fdf0fd9}, !- Handle
  Node 2,                                 !- Name
  {d17de55d-db04-49d0-8b06-7c42ba3dceb4}, !- Inlet Port
  ;                                       !- Outlet Port

OS:Connection,
  {d17de55d-db04-49d0-8b06-7c42ba3dceb4}, !- Handle
  {2011079e-339e-4497-aa47-75996ff5f19a}, !- Name
  {70c54683-32a3-4165-8240-5dd9090ea571}, !- Source Object
  11,                                     !- Outlet Port
  {78a0a88e-5df6-4b0f-9da5-fb759fdf0fd9}, !- Target Object
  2;                                      !- Inlet Port

OS:PortList,
  {1b77a2a7-c68d-4c4f-a27e-0181db1b9671}, !- Handle
  {66cb7786-7dd5-4e7b-b594-24ee9184e91a}, !- Name
  {70c54683-32a3-4165-8240-5dd9090ea571}; !- HVAC Component

OS:PortList,
  {0e87c3cb-ce6c-4cf2-b5c8-c7fa87d46010}, !- Handle
  {3c536998-54e1-4315-bd09-ad6da1979b48}, !- Name
  {70c54683-32a3-4165-8240-5dd9090ea571}; !- HVAC Component

OS:PortList,
  {c8bd5c4a-78e8-4f62-b57e-0da96d77a727}, !- Handle
  {7b09910a-533b-45e7-b3dd-16881f92467b}, !- Name
  {70c54683-32a3-4165-8240-5dd9090ea571}; !- HVAC Component

OS:Sizing:Zone,
  {51d5fc3f-674e-4270-bf35-cf9eda887e5e}, !- Handle
  {70c54683-32a3-4165-8240-5dd9090ea571}, !- Zone or ZoneList Name
  SupplyAirTemperature,                   !- Zone Cooling Design Supply Air Temperature Input Method
  14,                                     !- Zone Cooling Design Supply Air Temperature {C}
  11.11,                                  !- Zone Cooling Design Supply Air Temperature Difference {deltaC}
  SupplyAirTemperature,                   !- Zone Heating Design Supply Air Temperature Input Method
  40,                                     !- Zone Heating Design Supply Air Temperature {C}
  11.11,                                  !- Zone Heating Design Supply Air Temperature Difference {deltaC}
  0.0085,                                 !- Zone Cooling Design Supply Air Humidity Ratio {kg-H2O/kg-air}
  0.008,                                  !- Zone Heating Design Supply Air Humidity Ratio {kg-H2O/kg-air}
  ,                                       !- Zone Heating Sizing Factor
  ,                                       !- Zone Cooling Sizing Factor
  DesignDay,                              !- Cooling Design Air Flow Method
  ,                                       !- Cooling Design Air Flow Rate {m3/s}
  ,                                       !- Cooling Minimum Air Flow per Zone Floor Area {m3/s-m2}
  ,                                       !- Cooling Minimum Air Flow {m3/s}
  ,                                       !- Cooling Minimum Air Flow Fraction
  DesignDay,                              !- Heating Design Air Flow Method
  ,                                       !- Heating Design Air Flow Rate {m3/s}
  ,                                       !- Heating Maximum Air Flow per Zone Floor Area {m3/s-m2}
  ,                                       !- Heating Maximum Air Flow {m3/s}
  ,                                       !- Heating Maximum Air Flow Fraction
  ,                                       !- Design Zone Air Distribution Effectiveness in Cooling Mode
  ,                                       !- Design Zone Air Distribution Effectiveness in Heating Mode
  No,                                     !- Account for Dedicated Outdoor Air System
  NeutralSupplyAir,                       !- Dedicated Outdoor Air System Control Strategy
  autosize,                               !- Dedicated Outdoor Air Low Setpoint Temperature for Design {C}
  autosize;                               !- Dedicated Outdoor Air High Setpoint Temperature for Design {C}

OS:ZoneHVAC:EquipmentList,
  {c0201780-7d91-4f0e-aa13-2abfe0bd6e2e}, !- Handle
  Zone HVAC Equipment List 2,             !- Name
  {70c54683-32a3-4165-8240-5dd9090ea571}; !- Thermal Zone

OS:Space,
  {7f4fbde9-a0af-49d5-b5a0-7f402b4c8ace}, !- Handle
  garage space,                           !- Name
  {fa5b1fab-3fd7-4f69-a2f6-49a0ee39cc9a}, !- Space Type Name
  ,                                       !- Default Construction Set Name
  ,                                       !- Default Schedule Set Name
  -0,                                     !- Direction of Relative North {deg}
  0,                                      !- X Origin {m}
  0,                                      !- Y Origin {m}
  0,                                      !- Z Origin {m}
  ,                                       !- Building Story Name
  {70c54683-32a3-4165-8240-5dd9090ea571}; !- Thermal Zone Name

OS:Surface,
  {54ceb336-9993-4224-b39c-7c564c51e593}, !- Handle
  Surface 1,                              !- Name
  Floor,                                  !- Surface Type
  ,                                       !- Construction Name
  {7f4fbde9-a0af-49d5-b5a0-7f402b4c8ace}, !- Space Name
  Foundation,                             !- Outside Boundary Condition
  ,                                       !- Outside Boundary Condition Object
  NoSun,                                  !- Sun Exposure
  NoWind,                                 !- Wind Exposure
  ,                                       !- View Factor to Ground
  ,                                       !- Number of Vertices
  5.57695129776527, -3.048, 0,            !- X,Y,Z Vertex 1 {m}
  5.57695129776527, 3.048, 0,             !- X,Y,Z Vertex 2 {m}
  11.6729512977653, 3.048, 0,             !- X,Y,Z Vertex 3 {m}
  11.6729512977653, -3.048, 0;            !- X,Y,Z Vertex 4 {m}

OS:Surface,
  {27849885-8bba-4ab5-a4c0-b8294c3f4a68}, !- Handle
  Surface 2,                              !- Name
  Wall,                                   !- Surface Type
  ,                                       !- Construction Name
  {7f4fbde9-a0af-49d5-b5a0-7f402b4c8ace}, !- Space Name
  Surface,                                !- Outside Boundary Condition
  {f091574e-2884-42c8-a263-b552a487a48c}, !- Outside Boundary Condition Object
  NoSun,                                  !- Sun Exposure
  NoWind,                                 !- Wind Exposure
  ,                                       !- View Factor to Ground
  ,                                       !- Number of Vertices
  5.57695129776527, 3.048, 2.4384,        !- X,Y,Z Vertex 1 {m}
  5.57695129776527, 3.048, 0,             !- X,Y,Z Vertex 2 {m}
  5.57695129776527, 0, 0,                 !- X,Y,Z Vertex 3 {m}
  5.57695129776527, 0, 2.4384;            !- X,Y,Z Vertex 4 {m}

OS:Surface,
  {a5a40114-0b4f-4430-9f82-068fe316c8ea}, !- Handle
  Surface 3,                              !- Name
  Wall,                                   !- Surface Type
  ,                                       !- Construction Name
  {7f4fbde9-a0af-49d5-b5a0-7f402b4c8ace}, !- Space Name
  Surface,                                !- Outside Boundary Condition
  {151501b7-fb7b-4bda-8d96-4460c3a1a95f}, !- Outside Boundary Condition Object
  NoSun,                                  !- Sun Exposure
  NoWind,                                 !- Wind Exposure
  ,                                       !- View Factor to Ground
  ,                                       !- Number of Vertices
  11.6729512977653, 3.048, 2.4384,        !- X,Y,Z Vertex 1 {m}
  11.6729512977653, 3.048, 0,             !- X,Y,Z Vertex 2 {m}
  5.57695129776527, 3.048, 0,             !- X,Y,Z Vertex 3 {m}
  5.57695129776527, 3.048, 2.4384;        !- X,Y,Z Vertex 4 {m}

OS:Surface,
  {9d553463-0feb-4aac-ad1f-66f9297dd120}, !- Handle
  Surface 4,                              !- Name
  Wall,                                   !- Surface Type
  ,                                       !- Construction Name
  {7f4fbde9-a0af-49d5-b5a0-7f402b4c8ace}, !- Space Name
  Outdoors,                               !- Outside Boundary Condition
  ,                                       !- Outside Boundary Condition Object
  SunExposed,                             !- Sun Exposure
  WindExposed,                            !- Wind Exposure
  ,                                       !- View Factor to Ground
  ,                                       !- Number of Vertices
  11.6729512977653, -3.048, 2.4384,       !- X,Y,Z Vertex 1 {m}
  11.6729512977653, -3.048, 0,            !- X,Y,Z Vertex 2 {m}
  11.6729512977653, 3.048, 0,             !- X,Y,Z Vertex 3 {m}
  11.6729512977653, 3.048, 2.4384;        !- X,Y,Z Vertex 4 {m}

OS:Surface,
  {0021e88c-8ad3-4e67-9087-ade733e0bf4e}, !- Handle
  Surface 5,                              !- Name
  Wall,                                   !- Surface Type
  ,                                       !- Construction Name
  {7f4fbde9-a0af-49d5-b5a0-7f402b4c8ace}, !- Space Name
  Outdoors,                               !- Outside Boundary Condition
  ,                                       !- Outside Boundary Condition Object
  SunExposed,                             !- Sun Exposure
  WindExposed,                            !- Wind Exposure
  ,                                       !- View Factor to Ground
  ,                                       !- Number of Vertices
  5.57695129776527, -3.048, 2.4384,       !- X,Y,Z Vertex 1 {m}
  5.57695129776527, -3.048, 0,            !- X,Y,Z Vertex 2 {m}
  11.6729512977653, -3.048, 0,            !- X,Y,Z Vertex 3 {m}
  11.6729512977653, -3.048, 2.4384;       !- X,Y,Z Vertex 4 {m}

OS:Surface,
  {b655caae-3b1d-4191-b912-963a86606a01}, !- Handle
  Surface 6,                              !- Name
  RoofCeiling,                            !- Surface Type
  ,                                       !- Construction Name
  {7f4fbde9-a0af-49d5-b5a0-7f402b4c8ace}, !- Space Name
  Surface,                                !- Outside Boundary Condition
  {ce187453-cb64-4365-821e-ea2675035c4f}, !- Outside Boundary Condition Object
  NoSun,                                  !- Sun Exposure
  NoWind,                                 !- Wind Exposure
  ,                                       !- View Factor to Ground
  ,                                       !- Number of Vertices
  11.6729512977653, -3.048, 2.4384,       !- X,Y,Z Vertex 1 {m}
  11.6729512977653, 3.048, 2.4384,        !- X,Y,Z Vertex 2 {m}
  5.57695129776527, 3.048, 2.4384,        !- X,Y,Z Vertex 3 {m}
  5.57695129776527, -3.048, 2.4384;       !- X,Y,Z Vertex 4 {m}

OS:SpaceType,
  {fa5b1fab-3fd7-4f69-a2f6-49a0ee39cc9a}, !- Handle
  Space Type 1,                           !- Name
  ,                                       !- Default Construction Set Name
  ,                                       !- Default Schedule Set Name
  ,                                       !- Group Rendering Name
  ,                                       !- Design Specification Outdoor Air Object Name
  ,                                       !- Standards Template
  ,                                       !- Standards Building Type
  garage;                                 !- Standards Space Type

OS:Space,
  {5f8fbcf7-ac1e-4b29-8cac-96d3f311dfbf}, !- Handle
  living space,                           !- Name
  {a48dfbdc-1166-49d9-b814-59210c92a46b}, !- Space Type Name
  ,                                       !- Default Construction Set Name
  ,                                       !- Default Schedule Set Name
  -0,                                     !- Direction of Relative North {deg}
  0,                                      !- X Origin {m}
  0,                                      !- Y Origin {m}
  0,                                      !- Z Origin {m}
  ,                                       !- Building Story Name
  {baa55202-5795-4b4d-a0e9-4ce97afb9fad}, !- Thermal Zone Name
  ,                                       !- Part of Total Floor Area
  ,                                       !- Design Specification Outdoor Air Object Name
  {59b62a60-cf83-4022-ba55-522c30069156}; !- Building Unit Name

OS:Surface,
  {a4e4aa05-75c5-4b82-aa57-565b54d35d82}, !- Handle
  Surface 7,                              !- Name
  Floor,                                  !- Surface Type
  ,                                       !- Construction Name
  {5f8fbcf7-ac1e-4b29-8cac-96d3f311dfbf}, !- Space Name
  Surface,                                !- Outside Boundary Condition
  {41704115-fb35-4f7f-903a-e32dbf89e412}, !- Outside Boundary Condition Object
  NoSun,                                  !- Sun Exposure
  NoWind,                                 !- Wind Exposure
  ,                                       !- View Factor to Ground
  ,                                       !- Number of Vertices
  0, 0, 0,                                !- X,Y,Z Vertex 1 {m}
  0, 5.83647564888264, 0,                 !- X,Y,Z Vertex 2 {m}
  11.6729512977653, 5.83647564888264, 0,  !- X,Y,Z Vertex 3 {m}
  11.6729512977653, 3.048, 0,             !- X,Y,Z Vertex 4 {m}
  5.57695129776527, 3.048, 0,             !- X,Y,Z Vertex 5 {m}
  5.57695129776527, 0, 0;                 !- X,Y,Z Vertex 6 {m}

OS:Surface,
  {a5890c9c-ec1a-4141-bba7-f2cfea6e2cd5}, !- Handle
  Surface 8,                              !- Name
  Wall,                                   !- Surface Type
  ,                                       !- Construction Name
  {5f8fbcf7-ac1e-4b29-8cac-96d3f311dfbf}, !- Space Name
  Outdoors,                               !- Outside Boundary Condition
  ,                                       !- Outside Boundary Condition Object
  SunExposed,                             !- Sun Exposure
  WindExposed,                            !- Wind Exposure
  ,                                       !- View Factor to Ground
  ,                                       !- Number of Vertices
  0, 5.83647564888264, 2.4384,            !- X,Y,Z Vertex 1 {m}
  0, 5.83647564888264, 0,                 !- X,Y,Z Vertex 2 {m}
  0, 0, 0,                                !- X,Y,Z Vertex 3 {m}
  0, 0, 2.4384;                           !- X,Y,Z Vertex 4 {m}

OS:Surface,
  {017f9937-d298-45f2-b8a3-269ec1efc728}, !- Handle
  Surface 9,                              !- Name
  Wall,                                   !- Surface Type
  ,                                       !- Construction Name
  {5f8fbcf7-ac1e-4b29-8cac-96d3f311dfbf}, !- Space Name
  Outdoors,                               !- Outside Boundary Condition
  ,                                       !- Outside Boundary Condition Object
  SunExposed,                             !- Sun Exposure
  WindExposed,                            !- Wind Exposure
  ,                                       !- View Factor to Ground
  ,                                       !- Number of Vertices
  11.6729512977653, 5.83647564888264, 2.4384, !- X,Y,Z Vertex 1 {m}
  11.6729512977653, 5.83647564888264, 0,  !- X,Y,Z Vertex 2 {m}
  0, 5.83647564888264, 0,                 !- X,Y,Z Vertex 3 {m}
  0, 5.83647564888264, 2.4384;            !- X,Y,Z Vertex 4 {m}

OS:Surface,
  {30d0fd2b-1c68-4e93-9eeb-ec543a807062}, !- Handle
  Surface 10,                             !- Name
  Wall,                                   !- Surface Type
  ,                                       !- Construction Name
  {5f8fbcf7-ac1e-4b29-8cac-96d3f311dfbf}, !- Space Name
  Outdoors,                               !- Outside Boundary Condition
  ,                                       !- Outside Boundary Condition Object
  SunExposed,                             !- Sun Exposure
  WindExposed,                            !- Wind Exposure
  ,                                       !- View Factor to Ground
  ,                                       !- Number of Vertices
  11.6729512977653, 3.048, 2.4384,        !- X,Y,Z Vertex 1 {m}
  11.6729512977653, 3.048, 0,             !- X,Y,Z Vertex 2 {m}
  11.6729512977653, 5.83647564888264, 0,  !- X,Y,Z Vertex 3 {m}
  11.6729512977653, 5.83647564888264, 2.4384; !- X,Y,Z Vertex 4 {m}

OS:Surface,
  {151501b7-fb7b-4bda-8d96-4460c3a1a95f}, !- Handle
  Surface 11,                             !- Name
  Wall,                                   !- Surface Type
  ,                                       !- Construction Name
  {5f8fbcf7-ac1e-4b29-8cac-96d3f311dfbf}, !- Space Name
  Surface,                                !- Outside Boundary Condition
  {a5a40114-0b4f-4430-9f82-068fe316c8ea}, !- Outside Boundary Condition Object
  NoSun,                                  !- Sun Exposure
  NoWind,                                 !- Wind Exposure
  ,                                       !- View Factor to Ground
  ,                                       !- Number of Vertices
  5.57695129776527, 3.048, 2.4384,        !- X,Y,Z Vertex 1 {m}
  5.57695129776527, 3.048, 0,             !- X,Y,Z Vertex 2 {m}
  11.6729512977653, 3.048, 0,             !- X,Y,Z Vertex 3 {m}
  11.6729512977653, 3.048, 2.4384;        !- X,Y,Z Vertex 4 {m}

OS:Surface,
  {f091574e-2884-42c8-a263-b552a487a48c}, !- Handle
  Surface 12,                             !- Name
  Wall,                                   !- Surface Type
  ,                                       !- Construction Name
  {5f8fbcf7-ac1e-4b29-8cac-96d3f311dfbf}, !- Space Name
  Surface,                                !- Outside Boundary Condition
  {27849885-8bba-4ab5-a4c0-b8294c3f4a68}, !- Outside Boundary Condition Object
  NoSun,                                  !- Sun Exposure
  NoWind,                                 !- Wind Exposure
  ,                                       !- View Factor to Ground
  ,                                       !- Number of Vertices
  5.57695129776527, 0, 2.4384,            !- X,Y,Z Vertex 1 {m}
  5.57695129776527, 0, 0,                 !- X,Y,Z Vertex 2 {m}
  5.57695129776527, 3.048, 0,             !- X,Y,Z Vertex 3 {m}
  5.57695129776527, 3.048, 2.4384;        !- X,Y,Z Vertex 4 {m}

OS:Surface,
  {d6d9f191-3ecf-4fbe-8cb8-bda7dbff6599}, !- Handle
  Surface 13,                             !- Name
  Wall,                                   !- Surface Type
  ,                                       !- Construction Name
  {5f8fbcf7-ac1e-4b29-8cac-96d3f311dfbf}, !- Space Name
  Outdoors,                               !- Outside Boundary Condition
  ,                                       !- Outside Boundary Condition Object
  SunExposed,                             !- Sun Exposure
  WindExposed,                            !- Wind Exposure
  ,                                       !- View Factor to Ground
  ,                                       !- Number of Vertices
  0, 0, 2.4384,                           !- X,Y,Z Vertex 1 {m}
  0, 0, 0,                                !- X,Y,Z Vertex 2 {m}
  5.57695129776527, 0, 0,                 !- X,Y,Z Vertex 3 {m}
  5.57695129776527, 0, 2.4384;            !- X,Y,Z Vertex 4 {m}

OS:Surface,
  {d0d94916-6704-4142-82b9-682578eff45e}, !- Handle
  Surface 14,                             !- Name
  RoofCeiling,                            !- Surface Type
  ,                                       !- Construction Name
  {5f8fbcf7-ac1e-4b29-8cac-96d3f311dfbf}, !- Space Name
  Surface,                                !- Outside Boundary Condition
  {faf67ca7-f4de-43d8-93e0-a8c02fad1efb}, !- Outside Boundary Condition Object
  NoSun,                                  !- Sun Exposure
  NoWind,                                 !- Wind Exposure
  ,                                       !- View Factor to Ground
  ,                                       !- Number of Vertices
  5.57695129776527, 0, 2.4384,            !- X,Y,Z Vertex 1 {m}
  5.57695129776527, 3.048, 2.4384,        !- X,Y,Z Vertex 2 {m}
  11.6729512977653, 3.048, 2.4384,        !- X,Y,Z Vertex 3 {m}
  11.6729512977653, 5.83647564888264, 2.4384, !- X,Y,Z Vertex 4 {m}
  0, 5.83647564888264, 2.4384,            !- X,Y,Z Vertex 5 {m}
  0, 0, 2.4384;                           !- X,Y,Z Vertex 6 {m}

OS:SpaceType,
  {a48dfbdc-1166-49d9-b814-59210c92a46b}, !- Handle