!- NOTE: Auto-generated from /test/osw_files/SFD_2story_CS_UA_GRG_ASHPV_FuelTanklessWH.osw

OS:Version,
  {cd23d68d-5990-48ea-969f-a457baaa42de}, !- Handle
  2.8.0;                                  !- Version Identifier

OS:SimulationControl,
  {4915cd07-e123-4490-a756-f6aec350e786}, !- Handle
  ,                                       !- Do Zone Sizing Calculation
  ,                                       !- Do System Sizing Calculation
  ,                                       !- Do Plant Sizing Calculation
  No;                                     !- Run Simulation for Sizing Periods

OS:Timestep,
  {e7ee445a-29bd-4d13-8d04-f7f4bc7ff208}, !- Handle
  6;                                      !- Number of Timesteps per Hour

OS:ShadowCalculation,
  {dc4070db-25d6-45fe-9874-f6b7834e451b}, !- Handle
  20,                                     !- Calculation Frequency
  200;                                    !- Maximum Figures in Shadow Overlap Calculations

OS:SurfaceConvectionAlgorithm:Outside,
  {45afd28c-84af-4cc6-babc-b638c3b6c848}, !- Handle
  DOE-2;                                  !- Algorithm

OS:SurfaceConvectionAlgorithm:Inside,
  {3f3279f9-999e-4811-89b8-8ef150354d57}, !- Handle
  TARP;                                   !- Algorithm

OS:ZoneCapacitanceMultiplier:ResearchSpecial,
  {73962a66-ada0-4fa9-b190-11d6d9326b92}, !- Handle
  ,                                       !- Temperature Capacity Multiplier
  15,                                     !- Humidity Capacity Multiplier
  ;                                       !- Carbon Dioxide Capacity Multiplier

OS:RunPeriod,
  {9eadb643-ae1b-4f35-a489-8d4064a9928a}, !- Handle
  Run Period 1,                           !- Name
  1,                                      !- Begin Month
  1,                                      !- Begin Day of Month
  12,                                     !- End Month
  31,                                     !- End Day of Month
  ,                                       !- Use Weather File Holidays and Special Days
  ,                                       !- Use Weather File Daylight Saving Period
  ,                                       !- Apply Weekend Holiday Rule
  ,                                       !- Use Weather File Rain Indicators
  ,                                       !- Use Weather File Snow Indicators
  ;                                       !- Number of Times Runperiod to be Repeated

OS:YearDescription,
  {77a40de2-dfb1-46c9-88af-71e0add9c243}, !- Handle
  2007,                                   !- Calendar Year
  ,                                       !- Day of Week for Start Day
  ;                                       !- Is Leap Year

OS:WeatherFile,
  {28d0fc52-3642-4500-802c-aade93223a85}, !- Handle
  Denver Intl Ap,                         !- City
  CO,                                     !- State Province Region
  USA,                                    !- Country
  TMY3,                                   !- Data Source
  725650,                                 !- WMO Number
  39.83,                                  !- Latitude {deg}
  -104.65,                                !- Longitude {deg}
  -7,                                     !- Time Zone {hr}
  1650,                                   !- Elevation {m}
  file:../weather/USA_CO_Denver.Intl.AP.725650_TMY3.epw, !- Url
  E23378AA;                               !- Checksum

OS:AdditionalProperties,
  {a92508cb-7722-4577-9206-7ee0f0286a6e}, !- Handle
  {28d0fc52-3642-4500-802c-aade93223a85}, !- Object Name
  EPWHeaderCity,                          !- Feature Name 1
  String,                                 !- Feature Data Type 1
  Denver Intl Ap,                         !- Feature Value 1
  EPWHeaderState,                         !- Feature Name 2
  String,                                 !- Feature Data Type 2
  CO,                                     !- Feature Value 2
  EPWHeaderCountry,                       !- Feature Name 3
  String,                                 !- Feature Data Type 3
  USA,                                    !- Feature Value 3
  EPWHeaderDataSource,                    !- Feature Name 4
  String,                                 !- Feature Data Type 4
  TMY3,                                   !- Feature Value 4
  EPWHeaderStation,                       !- Feature Name 5
  String,                                 !- Feature Data Type 5
  725650,                                 !- Feature Value 5
  EPWHeaderLatitude,                      !- Feature Name 6
  Double,                                 !- Feature Data Type 6
  39.829999999999998,                     !- Feature Value 6
  EPWHeaderLongitude,                     !- Feature Name 7
  Double,                                 !- Feature Data Type 7
  -104.65000000000001,                    !- Feature Value 7
  EPWHeaderTimezone,                      !- Feature Name 8
  Double,                                 !- Feature Data Type 8
  -7,                                     !- Feature Value 8
  EPWHeaderAltitude,                      !- Feature Name 9
  Double,                                 !- Feature Data Type 9
  5413.3858267716532,                     !- Feature Value 9
  EPWHeaderLocalPressure,                 !- Feature Name 10
  Double,                                 !- Feature Data Type 10
  0.81937567683596546,                    !- Feature Value 10
  EPWHeaderRecordsPerHour,                !- Feature Name 11
  Double,                                 !- Feature Data Type 11
  0,                                      !- Feature Value 11
  EPWDataAnnualAvgDrybulb,                !- Feature Name 12
  Double,                                 !- Feature Data Type 12
  51.575616438356228,                     !- Feature Value 12
  EPWDataAnnualMinDrybulb,                !- Feature Name 13
  Double,                                 !- Feature Data Type 13
  -2.9200000000000017,                    !- Feature Value 13
  EPWDataAnnualMaxDrybulb,                !- Feature Name 14
  Double,                                 !- Feature Data Type 14
  104,                                    !- Feature Value 14
  EPWDataCDD50F,                          !- Feature Name 15
  Double,                                 !- Feature Data Type 15
  3072.2925000000005,                     !- Feature Value 15
  EPWDataCDD65F,                          !- Feature Name 16
  Double,                                 !- Feature Data Type 16
  883.62000000000035,                     !- Feature Value 16
  EPWDataHDD50F,                          !- Feature Name 17
  Double,                                 !- Feature Data Type 17
  2497.1925000000001,                     !- Feature Value 17
  EPWDataHDD65F,                          !- Feature Name 18
  Double,                                 !- Feature Data Type 18
  5783.5200000000013,                     !- Feature Value 18
  EPWDataAnnualAvgWindspeed,              !- Feature Name 19
  Double,                                 !- Feature Data Type 19
  3.9165296803649667,                     !- Feature Value 19
  EPWDataMonthlyAvgDrybulbs,              !- Feature Name 20
  String,                                 !- Feature Data Type 20
  33.4191935483871&#4431.90142857142857&#4443.02620967741937&#4442.48624999999999&#4459.877741935483854&#4473.57574999999997&#4472.07975806451608&#4472.70008064516134&#4466.49200000000006&#4450.079112903225806&#4437.218250000000005&#4434.582177419354835, !- Feature Value 20
  EPWDataGroundMonthlyTemps,              !- Feature Name 21
  String,                                 !- Feature Data Type 21
  44.08306285945173&#4440.89570904991865&#4440.64045432632048&#4442.153016571250646&#4448.225111118704206&#4454.268919273837525&#4459.508577937551024&#4462.82777283423508&#4463.10975667174995&#4460.41014950381947&#4455.304105212311526&#4449.445696474514364, !- Feature Value 21
  EPWDataWSF,                             !- Feature Name 22
  Double,                                 !- Feature Data Type 22
  0.58999999999999997,                    !- Feature Value 22
  EPWDataMonthlyAvgDailyHighDrybulbs,     !- Feature Name 23
  String,                                 !- Feature Data Type 23
  47.41032258064516&#4446.58642857142857&#4455.15032258064517&#4453.708&#4472.80193548387098&#4488.67600000000002&#4486.1858064516129&#4485.87225806451613&#4482.082&#4463.18064516129033&#4448.73400000000001&#4448.87935483870968, !- Feature Value 23
  EPWDataMonthlyAvgDailyLowDrybulbs,      !- Feature Name 24
  String,                                 !- Feature Data Type 24
  19.347741935483874&#4419.856428571428573&#4430.316129032258065&#4431.112&#4447.41612903225806&#4457.901999999999994&#4459.063870967741934&#4460.956774193548384&#4452.352000000000004&#4438.41612903225806&#4427.002000000000002&#4423.02903225806451, !- Feature Value 24
  EPWDesignHeatingDrybulb,                !- Feature Name 25
  Double,                                 !- Feature Data Type 25
  12.02,                                  !- Feature Value 25
  EPWDesignHeatingWindspeed,              !- Feature Name 26
  Double,                                 !- Feature Data Type 26
  2.8062500000000004,                     !- Feature Value 26
  EPWDesignCoolingDrybulb,                !- Feature Name 27
  Double,                                 !- Feature Data Type 27
  91.939999999999998,                     !- Feature Value 27
  EPWDesignCoolingWetbulb,                !- Feature Name 28
  Double,                                 !- Feature Data Type 28
  59.95131430195849,                      !- Feature Value 28
  EPWDesignCoolingHumidityRatio,          !- Feature Name 29
  Double,                                 !- Feature Data Type 29
  0.0059161086834698092,                  !- Feature Value 29
  EPWDesignCoolingWindspeed,              !- Feature Name 30
  Double,                                 !- Feature Data Type 30
  3.7999999999999989,                     !- Feature Value 30
  EPWDesignDailyTemperatureRange,         !- Feature Name 31
  Double,                                 !- Feature Data Type 31
  24.915483870967748,                     !- Feature Value 31
  EPWDesignDehumidDrybulb,                !- Feature Name 32
  Double,                                 !- Feature Data Type 32
  67.996785714285721,                     !- Feature Value 32
  EPWDesignDehumidHumidityRatio,          !- Feature Name 33
  Double,                                 !- Feature Data Type 33
  0.012133744170488724,                   !- Feature Value 33
  EPWDesignCoolingDirectNormal,           !- Feature Name 34
  Double,                                 !- Feature Data Type 34
  985,                                    !- Feature Value 34
  EPWDesignCoolingDiffuseHorizontal,      !- Feature Name 35
  Double,                                 !- Feature Data Type 35
  84;                                     !- Feature Value 35

OS:Site,
  {3055509b-542c-4faa-b267-5754721c1949}, !- Handle
  Denver Intl Ap_CO_USA,                  !- Name
  39.83,                                  !- Latitude {deg}
  -104.65,                                !- Longitude {deg}
  -7,                                     !- Time Zone {hr}
  1650,                                   !- Elevation {m}
  Suburbs;                                !- Terrain

OS:ClimateZones,
  {efc8c385-3cb8-43c8-abcc-423024d48ffa}, !- Handle
  ,                                       !- Active Institution
  ,                                       !- Active Year
  ,                                       !- Climate Zone Institution Name 1
  ,                                       !- Climate Zone Document Name 1
  ,                                       !- Climate Zone Document Year 1
  ,                                       !- Climate Zone Value 1
  Building America,                       !- Climate Zone Institution Name 2
  ,                                       !- Climate Zone Document Name 2
  0,                                      !- Climate Zone Document Year 2
  Cold;                                   !- Climate Zone Value 2

OS:Site:WaterMainsTemperature,
  {7729b1f2-8692-4ee5-99f5-48b3e8788e09}, !- Handle
  Correlation,                            !- Calculation Method
  ,                                       !- Temperature Schedule Name
  10.8753424657535,                       !- Annual Average Outdoor Air Temperature {C}
  23.1524007936508;                       !- Maximum Difference In Monthly Average Outdoor Air Temperatures {deltaC}

OS:RunPeriodControl:DaylightSavingTime,
  {475c3b29-24ef-4c23-9f9e-1352c1a89fba}, !- Handle
  4/7,                                    !- Start Date
  10/26;                                  !- End Date

OS:Site:GroundTemperature:Deep,
  {cd424d9a-ed41-48c8-aa32-d1cea2384abf}, !- Handle
  10.8753424657535,                       !- January Deep Ground Temperature {C}
  10.8753424657535,                       !- February Deep Ground Temperature {C}
  10.8753424657535,                       !- March Deep Ground Temperature {C}
  10.8753424657535,                       !- April Deep Ground Temperature {C}
  10.8753424657535,                       !- May Deep Ground Temperature {C}
  10.8753424657535,                       !- June Deep Ground Temperature {C}
  10.8753424657535,                       !- July Deep Ground Temperature {C}
  10.8753424657535,                       !- August Deep Ground Temperature {C}
  10.8753424657535,                       !- September Deep Ground Temperature {C}
  10.8753424657535,                       !- October Deep Ground Temperature {C}
  10.8753424657535,                       !- November Deep Ground Temperature {C}
  10.8753424657535;                       !- December Deep Ground Temperature {C}

OS:ThermalZone,
  {46c88eda-c259-4949-b1e8-71001deb4bd0}, !- Handle
  living zone,                            !- Name
  ,                                       !- Multiplier
  ,                                       !- Ceiling Height {m}
  ,                                       !- Volume {m3}
  ,                                       !- Floor Area {m2}
  ,                                       !- Zone Inside Convection Algorithm
  ,                                       !- Zone Outside Convection Algorithm
  ,                                       !- Zone Conditioning Equipment List Name
  {437101dc-e251-473b-8a41-f4a44cfe8f7f}, !- Zone Air Inlet Port List
  {6acb5a63-23d0-4255-9f4b-b8e66c5ff29f}, !- Zone Air Exhaust Port List
  {c904b496-dca1-43d9-bbab-2dc863fe49e8}, !- Zone Air Node Name
  {e155a223-e811-4525-827b-151db7341d71}, !- Zone Return Air Port List
  ,                                       !- Primary Daylighting Control Name
  ,                                       !- Fraction of Zone Controlled by Primary Daylighting Control
  ,                                       !- Secondary Daylighting Control Name
  ,                                       !- Fraction of Zone Controlled by Secondary Daylighting Control
  ,                                       !- Illuminance Map Name
  ,                                       !- Group Rendering Name
  {6be504ca-5205-4099-98c5-7720c2e59f15}, !- Thermostat Name
  No;                                     !- Use Ideal Air Loads

OS:Node,
  {eb7fb5e2-bb3a-4ac8-b89a-a42236190b24}, !- Handle
  Node 1,                                 !- Name
  {c904b496-dca1-43d9-bbab-2dc863fe49e8}, !- Inlet Port
  ;                                       !- Outlet Port

OS:Connection,
  {c904b496-dca1-43d9-bbab-2dc863fe49e8}, !- Handle
  {b2a87dbd-3b10-4f20-8ce5-af75e435d9ab}, !- Name
  {46c88eda-c259-4949-b1e8-71001deb4bd0}, !- Source Object
  11,                                     !- Outlet Port
  {eb7fb5e2-bb3a-4ac8-b89a-a42236190b24}, !- Target Object
  2;                                      !- Inlet Port

OS:PortList,
  {437101dc-e251-473b-8a41-f4a44cfe8f7f}, !- Handle
  {d70f75ee-5fce-41a5-a8fc-92e4032f72ef}, !- Name
  {46c88eda-c259-4949-b1e8-71001deb4bd0}, !- HVAC Component
  {4845bbf1-edf2-4aa8-93d1-b37c27c48232}, !- Port 1
  {43caef79-fe90-45f8-a9f0-65cd33276764}; !- Port 2

OS:PortList,
  {6acb5a63-23d0-4255-9f4b-b8e66c5ff29f}, !- Handle
  {e30e699d-4617-4193-b0b7-207e07ee2aa3}, !- Name
  {46c88eda-c259-4949-b1e8-71001deb4bd0}; !- HVAC Component

OS:PortList,
  {e155a223-e811-4525-827b-151db7341d71}, !- Handle
  {758ccfae-70b8-481c-895c-580e379380c0}, !- Name
  {46c88eda-c259-4949-b1e8-71001deb4bd0}, !- HVAC Component
  {4a2cfd5b-3c3a-4c83-a840-5f2fe5e082d5}, !- Port 1
  {59c56107-3b56-4a19-9292-2f1e5e40d110}; !- Port 2

OS:Sizing:Zone,
  {4d893dd7-c67a-48ca-a16d-54bdf2f8e448}, !- Handle
  {46c88eda-c259-4949-b1e8-71001deb4bd0}, !- Zone or ZoneList Name
  SupplyAirTemperature,                   !- Zone Cooling Design Supply Air Temperature Input Method
  14,                                     !- Zone Cooling Design Supply Air Temperature {C}
  11.11,                                  !- Zone Cooling Design Supply Air Temperature Difference {deltaC}
  SupplyAirTemperature,                   !- Zone Heating Design Supply Air Temperature Input Method
  40,                                     !- Zone Heating Design Supply Air Temperature {C}
  11.11,                                  !- Zone Heating Design Supply Air Temperature Difference {deltaC}
  0.0085,                                 !- Zone Cooling Design Supply Air Humidity Ratio {kg-H2O/kg-air}
  0.008,                                  !- Zone Heating Design Supply Air Humidity Ratio {kg-H2O/kg-air}
  ,                                       !- Zone Heating Sizing Factor
  ,                                       !- Zone Cooling Sizing Factor
  DesignDay,                              !- Cooling Design Air Flow Method
  ,                                       !- Cooling Design Air Flow Rate {m3/s}
  ,                                       !- Cooling Minimum Air Flow per Zone Floor Area {m3/s-m2}
  ,                                       !- Cooling Minimum Air Flow {m3/s}
  ,                                       !- Cooling Minimum Air Flow Fraction
  DesignDay,                              !- Heating Design Air Flow Method
  ,                                       !- Heating Design Air Flow Rate {m3/s}
  ,                                       !- Heating Maximum Air Flow per Zone Floor Area {m3/s-m2}
  ,                                       !- Heating Maximum Air Flow {m3/s}
  ,                                       !- Heating Maximum Air Flow Fraction
  ,                                       !- Design Zone Air Distribution Effectiveness in Cooling Mode
  ,                                       !- Design Zone Air Distribution Effectiveness in Heating Mode
  No,                                     !- Account for Dedicated Outdoor Air System
  NeutralSupplyAir,                       !- Dedicated Outdoor Air System Control Strategy
  autosize,                               !- Dedicated Outdoor Air Low Setpoint Temperature for Design {C}
  autosize;                               !- Dedicated Outdoor Air High Setpoint Temperature for Design {C}

OS:ZoneHVAC:EquipmentList,
  {4d76f340-725d-4d1f-bd4e-ec86b54afff7}, !- Handle
  Zone HVAC Equipment List 1,             !- Name
  {46c88eda-c259-4949-b1e8-71001deb4bd0}, !- Thermal Zone
  SequentialLoad,                         !- Load Distribution Scheme
  {342c1aab-bb0e-4dc7-9b1c-613e34365dc8}, !- Zone Equipment 1
  1,                                      !- Zone Equipment Cooling Sequence 1
  1,                                      !- Zone Equipment Heating or No-Load Sequence 1
  ,                                       !- Zone Equipment Sequential Cooling Fraction 1
  ,                                       !- Zone Equipment Sequential Heating Fraction 1
  {1df290e7-fc28-431e-ad4c-1aca90c38a5e}, !- Zone Equipment 2
  2,                                      !- Zone Equipment Cooling Sequence 2
  2,                                      !- Zone Equipment Heating or No-Load Sequence 2
  ,                                       !- Zone Equipment Sequential Cooling Fraction 2
  ;                                       !- Zone Equipment Sequential Heating Fraction 2

OS:ThermalZone,
  {d1d5c01b-ec64-4aad-989c-7a52b15238bd}, !- Handle
  garage zone,                            !- Name
  ,                                       !- Multiplier
  ,                                       !- Ceiling Height {m}
  ,                                       !- Volume {m3}
  ,                                       !- Floor Area {m2}
  ,                                       !- Zone Inside Convection Algorithm
  ,                                       !- Zone Outside Convection Algorithm
  ,                                       !- Zone Conditioning Equipment List Name
  {a4eb4c9b-3823-488c-85ec-1672d286b7c6}, !- Zone Air Inlet Port List
  {7800f912-4fbe-4bb6-a0ed-687ac27e43b9}, !- Zone Air Exhaust Port List
  {5bd58b7e-e180-4762-9fbb-341abc45de46}, !- Zone Air Node Name
  {15e4a2fb-94db-4314-afa9-a1625b944d58}, !- Zone Return Air Port List
  ,                                       !- Primary Daylighting Control Name
  ,                                       !- Fraction of Zone Controlled by Primary Daylighting Control
  ,                                       !- Secondary Daylighting Control Name
  ,                                       !- Fraction of Zone Controlled by Secondary Daylighting Control
  ,                                       !- Illuminance Map Name
  ,                                       !- Group Rendering Name
  ,                                       !- Thermostat Name
  No;                                     !- Use Ideal Air Loads

OS:Node,
  {5bc4f569-9fd4-46ad-98d1-7df5e3a058d9}, !- Handle
  Node 2,                                 !- Name
  {5bd58b7e-e180-4762-9fbb-341abc45de46}, !- Inlet Port
  ;                                       !- Outlet Port

OS:Connection,
  {5bd58b7e-e180-4762-9fbb-341abc45de46}, !- Handle
  {0902956d-20ae-4c96-b1b8-fd308ef4c3e1}, !- Name
  {d1d5c01b-ec64-4aad-989c-7a52b15238bd}, !- Source Object
  11,                                     !- Outlet Port
  {5bc4f569-9fd4-46ad-98d1-7df5e3a058d9}, !- Target Object
  2;                                      !- Inlet Port

OS:PortList,
  {a4eb4c9b-3823-488c-85ec-1672d286b7c6}, !- Handle
  {54f65e4d-4026-4f8b-895c-7c377a3bcf93}, !- Name
  {d1d5c01b-ec64-4aad-989c-7a52b15238bd}; !- HVAC Component

OS:PortList,
  {7800f912-4fbe-4bb6-a0ed-687ac27e43b9}, !- Handle
  {30280004-a2d4-44dc-a724-9dbc85f48a35}, !- Name
  {d1d5c01b-ec64-4aad-989c-7a52b15238bd}; !- HVAC Component

OS:PortList,
  {15e4a2fb-94db-4314-afa9-a1625b944d58}, !- Handle
  {21deda76-d2d0-4fcb-a449-27ec9a69d251}, !- Name
  {d1d5c01b-ec64-4aad-989c-7a52b15238bd}; !- HVAC Component

OS:Sizing:Zone,
  {464bf6c1-7ff2-4d85-b69b-8ea64658ce78}, !- Handle
  {d1d5c01b-ec64-4aad-989c-7a52b15238bd}, !- Zone or ZoneList Name
  SupplyAirTemperature,                   !- Zone Cooling Design Supply Air Temperature Input Method
  14,                                     !- Zone Cooling Design Supply Air Temperature {C}
  11.11,                                  !- Zone Cooling Design Supply Air Temperature Difference {deltaC}
  SupplyAirTemperature,                   !- Zone Heating Design Supply Air Temperature Input Method
  40,                                     !- Zone Heating Design Supply Air Temperature {C}
  11.11,                                  !- Zone Heating Design Supply Air Temperature Difference {deltaC}
  0.0085,                                 !- Zone Cooling Design Supply Air Humidity Ratio {kg-H2O/kg-air}
  0.008,                                  !- Zone Heating Design Supply Air Humidity Ratio {kg-H2O/kg-air}
  ,                                       !- Zone Heating Sizing Factor
  ,                                       !- Zone Cooling Sizing Factor
  DesignDay,                              !- Cooling Design Air Flow Method
  ,                                       !- Cooling Design Air Flow Rate {m3/s}
  ,                                       !- Cooling Minimum Air Flow per Zone Floor Area {m3/s-m2}
  ,                                       !- Cooling Minimum Air Flow {m3/s}
  ,                                       !- Cooling Minimum Air Flow Fraction
  DesignDay,                              !- Heating Design Air Flow Method
  ,                                       !- Heating Design Air Flow Rate {m3/s}
  ,                                       !- Heating Maximum Air Flow per Zone Floor Area {m3/s-m2}
  ,                                       !- Heating Maximum Air Flow {m3/s}
  ,                                       !- Heating Maximum Air Flow Fraction
  ,                                       !- Design Zone Air Distribution Effectiveness in Cooling Mode
  ,                                       !- Design Zone Air Distribution Effectiveness in Heating Mode
  No,                                     !- Account for Dedicated Outdoor Air System
  NeutralSupplyAir,                       !- Dedicated Outdoor Air System Control Strategy
  autosize,                               !- Dedicated Outdoor Air Low Setpoint Temperature for Design {C}
  autosize;                               !- Dedicated Outdoor Air High Setpoint Temperature for Design {C}

OS:ZoneHVAC:EquipmentList,
  {385ac5e9-aa02-4e5c-8c49-2fe466e87c13}, !- Handle
  Zone HVAC Equipment List 2,             !- Name
  {d1d5c01b-ec64-4aad-989c-7a52b15238bd}; !- Thermal Zone

OS:Space,
  {89800cba-1368-49b9-b60a-7bc5c1ee7be2}, !- Handle
  garage space,                           !- Name
  {6da7b1df-7a62-4185-a144-6368b44a2d35}, !- Space Type Name
  ,                                       !- Default Construction Set Name
  ,                                       !- Default Schedule Set Name
  -0,                                     !- Direction of Relative North {deg}
  0,                                      !- X Origin {m}
  0,                                      !- Y Origin {m}
  0,                                      !- Z Origin {m}
  ,                                       !- Building Story Name
  {d1d5c01b-ec64-4aad-989c-7a52b15238bd}; !- Thermal Zone Name

OS:Surface,
  {1aad5819-b20e-4c6a-8886-ed221e861c52}, !- Handle
  Surface 1,                              !- Name
  Floor,                                  !- Surface Type
  {a9ea7216-97f9-4707-86fb-8739b87abe3a}, !- Construction Name
  {89800cba-1368-49b9-b60a-7bc5c1ee7be2}, !- Space Name
  Foundation,                             !- Outside Boundary Condition
  {14349264-06c5-46ec-af35-555ac36797ca}, !- Outside Boundary Condition Object
  NoSun,                                  !- Sun Exposure
  NoWind,                                 !- Wind Exposure
  ,                                       !- View Factor to Ground
  ,                                       !- Number of Vertices
  12.1802725844098, -3.6576, 0,           !- X,Y,Z Vertex 1 {m}
  12.1802725844098, 3.6576, 0,            !- X,Y,Z Vertex 2 {m}
  15.8378725844098, 3.6576, 0,            !- X,Y,Z Vertex 3 {m}
  15.8378725844098, -3.6576, 0;           !- X,Y,Z Vertex 4 {m}

OS:Surface,
  {3636f026-72b7-42a1-9a29-a38f2ea72362}, !- Handle
  Surface 2,                              !- Name
  Wall,                                   !- Surface Type
  {160f3899-f44a-449f-b7cd-cbdf567d623d}, !- Construction Name
  {89800cba-1368-49b9-b60a-7bc5c1ee7be2}, !- Space Name
  Surface,                                !- Outside Boundary Condition
  {fedd9a15-dc1c-450b-a7d5-89d42b493084}, !- Outside Boundary Condition Object
  NoSun,                                  !- Sun Exposure
  NoWind,                                 !- Wind Exposure
  ,                                       !- View Factor to Ground
  ,                                       !- Number of Vertices
  12.1802725844098, 3.6576, 2.4384,       !- X,Y,Z Vertex 1 {m}
  12.1802725844098, 3.6576, 0,            !- X,Y,Z Vertex 2 {m}
  12.1802725844098, 0, 0,                 !- X,Y,Z Vertex 3 {m}
  12.1802725844098, 0, 2.4384;            !- X,Y,Z Vertex 4 {m}

OS:Surface,
  {8a8af637-f3c2-4eaa-ab60-74a7b0129cc0}, !- Handle
  Surface 3,                              !- Name
  Wall,                                   !- Surface Type
  {160f3899-f44a-449f-b7cd-cbdf567d623d}, !- Construction Name
  {89800cba-1368-49b9-b60a-7bc5c1ee7be2}, !- Space Name
  Surface,                                !- Outside Boundary Condition
  {bd22e894-8679-4843-b401-6f2aec92307b}, !- Outside Boundary Condition Object
  NoSun,                                  !- Sun Exposure
  NoWind,                                 !- Wind Exposure
  ,                                       !- View Factor to Ground
  ,                                       !- Number of Vertices
  15.8378725844098, 3.6576, 2.4384,       !- X,Y,Z Vertex 1 {m}
  15.8378725844098, 3.6576, 0,            !- X,Y,Z Vertex 2 {m}
  12.1802725844098, 3.6576, 0,            !- X,Y,Z Vertex 3 {m}
  12.1802725844098, 3.6576, 2.4384;       !- X,Y,Z Vertex 4 {m}

OS:Surface,
  {cfeda9fc-b30a-42a2-8c6b-2a171e3decdd}, !- Handle
  Surface 4,                              !- Name
  Wall,                                   !- Surface Type
  {6346b722-c61e-44b6-b0be-a652c546dd66}, !- Construction Name
  {89800cba-1368-49b9-b60a-7bc5c1ee7be2}, !- Space Name
  Outdoors,                               !- Outside Boundary Condition
  ,                                       !- Outside Boundary Condition Object
  SunExposed,                             !- Sun Exposure
  WindExposed,                            !- Wind Exposure
  ,                                       !- View Factor to Ground
  ,                                       !- Number of Vertices
  15.8378725844098, -3.6576, 2.4384,      !- X,Y,Z Vertex 1 {m}
  15.8378725844098, -3.6576, 0,           !- X,Y,Z Vertex 2 {m}
  15.8378725844098, 3.6576, 0,            !- X,Y,Z Vertex 3 {m}