!- NOTE: Auto-generated from /test/osw_files/SFD_Successful_EnergyPlus_Run_AMY_PV.osw

OS:Version,
  {7d41d6ef-003f-4dc1-9703-ab79af61a869}, !- Handle
  2.9.0;                                  !- Version Identifier

OS:SimulationControl,
  {069340b4-83ce-41e5-8b9a-4f64bf080488}, !- Handle
  ,                                       !- Do Zone Sizing Calculation
  ,                                       !- Do System Sizing Calculation
  ,                                       !- Do Plant Sizing Calculation
  No;                                     !- Run Simulation for Sizing Periods

OS:Timestep,
  {8b49b6d3-dbed-4ca6-a21a-6f7b2b59aa7d}, !- Handle
  6;                                      !- Number of Timesteps per Hour

OS:ShadowCalculation,
  {46f14c63-3b3f-4bf8-9ba7-8916b0b350bf}, !- Handle
  20,                                     !- Calculation Frequency
  200;                                    !- Maximum Figures in Shadow Overlap Calculations

OS:SurfaceConvectionAlgorithm:Outside,
  {8ccb0e1a-552f-42d0-9640-1e28229ad5e8}, !- Handle
  DOE-2;                                  !- Algorithm

OS:SurfaceConvectionAlgorithm:Inside,
  {aab415cb-0673-4029-bbd8-6c378bf0fa7a}, !- Handle
  TARP;                                   !- Algorithm

OS:ZoneCapacitanceMultiplier:ResearchSpecial,
  {14f315be-81e7-456e-a23e-de49c22dc30a}, !- Handle
  ,                                       !- Temperature Capacity Multiplier
  15,                                     !- Humidity Capacity Multiplier
  ;                                       !- Carbon Dioxide Capacity Multiplier

OS:RunPeriod,
  {88a5519c-15d5-423b-b3fc-1a71ba589c46}, !- Handle
  Run Period 1,                           !- Name
  1,                                      !- Begin Month
  1,                                      !- Begin Day of Month
  12,                                     !- End Month
  31,                                     !- End Day of Month
  ,                                       !- Use Weather File Holidays and Special Days
  ,                                       !- Use Weather File Daylight Saving Period
  ,                                       !- Apply Weekend Holiday Rule
  ,                                       !- Use Weather File Rain Indicators
  ,                                       !- Use Weather File Snow Indicators
  ;                                       !- Number of Times Runperiod to be Repeated

OS:YearDescription,
  {dc2c7730-1cf5-49bd-aa41-c7125b4a0d17}, !- Handle
  2012,                                   !- Calendar Year
  ,                                       !- Day of Week for Start Day
  ;                                       !- Is Leap Year

OS:WeatherFile,
  {81b2b896-ffe8-4587-a206-a9839abed791}, !- Handle
  Boulder,                                !- City
  CO,                                     !- State Province Region
  US,                                     !- Country
  NSRDB 2.0.1 2012 AMY,                   !- Data Source
  0-20000-0-72469,                        !- WMO Number
  40.13,                                  !- Latitude {deg}
  -105.22,                                !- Longitude {deg}
  -7,                                     !- Time Zone {hr}
  1615.5,                                 !- Elevation {m}
  file:../weather/0465925_US_CO_Boulder_8013_0-20000-0-72469_40.13_-105.22_NSRDB_2.0.1_AMY_2012.epw, !- Url
  0F4A54A0;                               !- Checksum

OS:AdditionalProperties,
  {14d414c0-4e05-4011-846b-586f5b4bf278}, !- Handle
  {81b2b896-ffe8-4587-a206-a9839abed791}, !- Object Name
  EPWHeaderCity,                          !- Feature Name 1
  String,                                 !- Feature Data Type 1
  Boulder,                                !- Feature Value 1
  EPWHeaderState,                         !- Feature Name 2
  String,                                 !- Feature Data Type 2
  CO,                                     !- Feature Value 2
  EPWHeaderCountry,                       !- Feature Name 3
  String,                                 !- Feature Data Type 3
  US,                                     !- Feature Value 3
  EPWHeaderDataSource,                    !- Feature Name 4
  String,                                 !- Feature Data Type 4
  NSRDB 2.0.1 2012 AMY,                   !- Feature Value 4
  EPWHeaderStation,                       !- Feature Name 5
  String,                                 !- Feature Data Type 5
  0-20000-0-72469,                        !- Feature Value 5
  EPWHeaderLatitude,                      !- Feature Name 6
  Double,                                 !- Feature Data Type 6
  40.130000000000003,                     !- Feature Value 6
  EPWHeaderLongitude,                     !- Feature Name 7
  Double,                                 !- Feature Data Type 7
  -105.22,                                !- Feature Value 7
  EPWHeaderTimezone,                      !- Feature Name 8
  Double,                                 !- Feature Data Type 8
  -7,                                     !- Feature Value 8
  EPWHeaderAltitude,                      !- Feature Name 9
  Double,                                 !- Feature Data Type 9
  5300.1968503937005,                     !- Feature Value 9
  EPWHeaderLocalPressure,                 !- Feature Name 10
  Double,                                 !- Feature Data Type 10
  0.82279578489595584,                    !- Feature Value 10
  EPWHeaderRecordsPerHour,                !- Feature Name 11
  Double,                                 !- Feature Data Type 11
  1,                                      !- Feature Value 11
  EPWDataAnnualAvgDrybulb,                !- Feature Name 12
  Double,                                 !- Feature Data Type 12
  49.373852459016362,                     !- Feature Value 12
  EPWDataAnnualMinDrybulb,                !- Feature Name 13
  Double,                                 !- Feature Data Type 13
  5.1799999999999997,                     !- Feature Value 13
  EPWDataAnnualMaxDrybulb,                !- Feature Name 14
  Double,                                 !- Feature Data Type 14
  100.22,                                 !- Feature Value 14
  EPWDataCDD50F,                          !- Feature Name 15
  Double,                                 !- Feature Data Type 15
  2633.8050000000003,                     !- Feature Value 15
  EPWDataCDD65F,                          !- Feature Name 16
  Double,                                 !- Feature Data Type 16
  609.09000000000049,                     !- Feature Value 16
  EPWDataHDD50F,                          !- Feature Name 17
  Double,                                 !- Feature Data Type 17
  2862.9750000000008,                     !- Feature Value 17
  EPWDataHDD65F,                          !- Feature Name 18
  Double,                                 !- Feature Data Type 18
  6328.2600000000002,                     !- Feature Value 18
  EPWDataAnnualAvgWindspeed,              !- Feature Name 19
  Double,                                 !- Feature Data Type 19
  3.1285632969034616,                     !- Feature Value 19
  EPWDataMonthlyAvgDrybulbs,              !- Feature Name 20
  String,                                 !- Feature Data Type 20
  30.756693548387098&#4426.408620689655166&#4442.98798387096775&#4449.43600000000001&#4456.781451612903226&#4471.08874999999998&#4471.22572580645158&#4470.36758064516127&#4460.752750000000006&#4445.266048387096774&#4439.64775&#4427.041048387096776, !- Feature Value 20
  EPWDataGroundMonthlyTemps,              !- Feature Name 21
  String,                                 !- Feature Data Type 21
  41.29137700627439&#4437.863655430265&#4437.5891511939173&#4439.21578022596816&#4445.74578936070071&#4452.24537894270793&#4457.88017574462509&#4461.44968093363656&#4461.75293000534151&#4458.849737486020615&#4453.358631310824705&#4447.05842266389976, !- Feature Value 21
  EPWDataWSF,                             !- Feature Name 22
  Double,                                 !- Feature Data Type 22
  0.55793636363636512,                    !- Feature Value 22
  EPWDataMonthlyAvgDailyHighDrybulbs,     !- Feature Name 23
  String,                                 !- Feature Data Type 23
  42.428387096774195&#4437.65071428571429&#4458.03032258064516&#4466.30799999999999&#4473.79483870967744&#4488.50800000000001&#4486.47612903225806&#4487.48064516129034&#4477.17399999999999&#4461.35741935483871&#4454.824&#4439.292903225806455, !- Feature Value 23
  EPWDataMonthlyAvgDailyLowDrybulbs,      !- Feature Name 24
  String,                                 !- Feature Data Type 24
  22.123225806451615&#4417.252857142857145&#4429.69483870967742&#4434.652&#4440.51806451612903&#4453.60000000000001&#4457.5658064516129&#4455.580000000000005&#4448.368&#4433.69548387096774&#4430.266000000000002&#4419.55677419354839, !- Feature Value 24
  EPWDesignHeatingDrybulb,                !- Feature Name 25
  Double,                                 !- Feature Data Type 25
  10.219999999999999,                     !- Feature Value 25
  EPWDesignHeatingWindspeed,              !- Feature Name 26
  Double,                                 !- Feature Data Type 26
  3.5214285714285722,                     !- Feature Value 26
  EPWDesignCoolingDrybulb,                !- Feature Name 27
  Double,                                 !- Feature Data Type 27
  91.400000000000006,                     !- Feature Value 27
  EPWDesignCoolingWetbulb,                !- Feature Name 28
  Double,                                 !- Feature Data Type 28
  57.984172199004441,                     !- Feature Value 28
  EPWDesignCoolingHumidityRatio,          !- Feature Name 29
  Double,                                 !- Feature Data Type 29
  0.0046138440452612025,                  !- Feature Value 29
  EPWDesignCoolingWindspeed,              !- Feature Name 30
  Double,                                 !- Feature Data Type 30
  1.929824561403509,                      !- Feature Value 30
  EPWDesignDailyTemperatureRange,         !- Feature Name 31
  Double,                                 !- Feature Data Type 31
  31.900645161290335,                     !- Feature Value 31
  EPWDesignDehumidDrybulb,                !- Feature Name 32
  Double,                                 !- Feature Data Type 32
  64.967341772151897,                     !- Feature Value 32
  EPWDesignDehumidHumidityRatio,          !- Feature Name 33
  Double,                                 !- Feature Data Type 33
  0.010155075083581143,                   !- Feature Value 33
  EPWDesignCoolingDirectNormal,           !- Feature Name 34
  Double,                                 !- Feature Data Type 34
  984,                                    !- Feature Value 34
  EPWDesignCoolingDiffuseHorizontal,      !- Feature Name 35
  Double,                                 !- Feature Data Type 35
  121;                                    !- Feature Value 35

OS:Site,
  {04660e67-2a5e-4a76-8975-0a545573bea2}, !- Handle
  Boulder_CO_US,                          !- Name
  40.13,                                  !- Latitude {deg}
  -105.22,                                !- Longitude {deg}
  -7,                                     !- Time Zone {hr}
  1615.5,                                 !- Elevation {m}
  Suburbs;                                !- Terrain

OS:Site:WaterMainsTemperature,
  {8315cc14-3cc7-4870-96dc-e7326d8f3cd4}, !- Handle
  Correlation,                            !- Calculation Method
  ,                                       !- Temperature Schedule Name
  9.65214025500909,                       !- Annual Average Outdoor Air Temperature {C}
  24.8983917315536;                       !- Maximum Difference In Monthly Average Outdoor Air Temperatures {deltaC}

OS:RunPeriodControl:DaylightSavingTime,
  {9ba9acce-d4ee-4e5a-ba85-bf37a0152b58}, !- Handle
  4/7,                                    !- Start Date
  10/26;                                  !- End Date

OS:Site:GroundTemperature:Deep,
  {569e29fe-2786-4692-a910-bbd09d20447d}, !- Handle
  9.65214025500909,                       !- January Deep Ground Temperature {C}
  9.65214025500909,                       !- February Deep Ground Temperature {C}
  9.65214025500909,                       !- March Deep Ground Temperature {C}
  9.65214025500909,                       !- April Deep Ground Temperature {C}
  9.65214025500909,                       !- May Deep Ground Temperature {C}
  9.65214025500909,                       !- June Deep Ground Temperature {C}
  9.65214025500909,                       !- July Deep Ground Temperature {C}
  9.65214025500909,                       !- August Deep Ground Temperature {C}
  9.65214025500909,                       !- September Deep Ground Temperature {C}
  9.65214025500909,                       !- October Deep Ground Temperature {C}
  9.65214025500909,                       !- November Deep Ground Temperature {C}
  9.65214025500909;                       !- December Deep Ground Temperature {C}

OS:Building,
  {9850f01c-4c6f-4e90-ac8f-74bb7c09cd9d}, !- Handle
  Building 1,                             !- Name
  ,                                       !- Building Sector Type
  22.5,                                   !- North Axis {deg}
  ,                                       !- Nominal Floor to Floor Height {m}
  ,                                       !- Space Type Name
  ,                                       !- Default Construction Set Name
  ,                                       !- Default Schedule Set Name
  2,                                      !- Standards Number of Stories
  2,                                      !- Standards Number of Above Ground Stories
  ,                                       !- Standards Template
  singlefamilydetached,                   !- Standards Building Type
  1;                                      !- Standards Number of Living Units

OS:AdditionalProperties,
  {260e2438-f8cb-42b8-b155-998d2e934a5e}, !- Handle
  {9850f01c-4c6f-4e90-ac8f-74bb7c09cd9d}, !- Object Name
  Total Units Represented,                !- Feature Name 1
  Integer,                                !- Feature Data Type 1
  1,                                      !- Feature Value 1
  Total Units Modeled,                    !- Feature Name 2
  Integer,                                !- Feature Data Type 2
  1,                                      !- Feature Value 2
  has_water_heater_flue,                  !- Feature Name 3
  Boolean,                                !- Feature Data Type 3
  true,                                   !- Feature Value 3
  has_hvac_flue,                          !- Feature Name 4
  Boolean,                                !- Feature Data Type 4
  true;                                   !- Feature Value 4

OS:ThermalZone,
  {93f4da18-204a-4c1b-8e2c-cddae38f6b7d}, !- Handle
  living zone,                            !- Name
  ,                                       !- Multiplier
  ,                                       !- Ceiling Height {m}
  ,                                       !- Volume {m3}
  ,                                       !- Floor Area {m2}
  ,                                       !- Zone Inside Convection Algorithm
  ,                                       !- Zone Outside Convection Algorithm
  ,                                       !- Zone Conditioning Equipment List Name
  {c74fa2c8-98d1-4c96-9402-9bc092688627}, !- Zone Air Inlet Port List
  {0775e467-5ad8-4a8b-9b1b-5773ea62f266}, !- Zone Air Exhaust Port List
  {53f12eb7-eb80-49c0-9bd3-23be5f76c27b}, !- Zone Air Node Name
  {e2677c2c-34da-4b6d-84c9-5e3ba2dc54c7}, !- Zone Return Air Port List
  ,                                       !- Primary Daylighting Control Name
  ,                                       !- Fraction of Zone Controlled by Primary Daylighting Control
  ,                                       !- Secondary Daylighting Control Name
  ,                                       !- Fraction of Zone Controlled by Secondary Daylighting Control
  ,                                       !- Illuminance Map Name
  ,                                       !- Group Rendering Name
  {5e13de3e-d057-47be-8c45-a2a6aa2f02c2}, !- Thermostat Name
  No;                                     !- Use Ideal Air Loads

OS:Node,
  {d19ef756-9b1f-40f9-bf7d-810e798c2cc2}, !- Handle
  Node 1,                                 !- Name
  {53f12eb7-eb80-49c0-9bd3-23be5f76c27b}, !- Inlet Port
  ;                                       !- Outlet Port

OS:Connection,
  {53f12eb7-eb80-49c0-9bd3-23be5f76c27b}, !- Handle
  {ed232bfb-95ed-408d-965e-ef61f362b627}, !- Name
  {93f4da18-204a-4c1b-8e2c-cddae38f6b7d}, !- Source Object
  11,                                     !- Outlet Port
  {d19ef756-9b1f-40f9-bf7d-810e798c2cc2}, !- Target Object
  2;                                      !- Inlet Port

OS:PortList,
  {c74fa2c8-98d1-4c96-9402-9bc092688627}, !- Handle
  {edbdc154-0e0b-4741-ba2f-016dd78ecf69}, !- Name
  {93f4da18-204a-4c1b-8e2c-cddae38f6b7d}, !- HVAC Component
  {66548dc7-93fb-49b6-9806-7b2cad5d0268}, !- Port 1
  {91bff9c4-128c-4bbc-9343-dadaef2ea50e}; !- Port 2

OS:PortList,
  {0775e467-5ad8-4a8b-9b1b-5773ea62f266}, !- Handle
  {b30fe8dc-7a6a-41ab-8d2b-a32dbcc23cba}, !- Name
  {93f4da18-204a-4c1b-8e2c-cddae38f6b7d}; !- HVAC Component

OS:PortList,
  {e2677c2c-34da-4b6d-84c9-5e3ba2dc54c7}, !- Handle
  {8c06ad25-6a92-4fb4-8f94-8f63f93a3972}, !- Name
  {93f4da18-204a-4c1b-8e2c-cddae38f6b7d}, !- HVAC Component
  {a307f6bd-2f47-4b39-b19c-0bb70e587aa0}, !- Port 1
  {6f466fb7-cfc8-41e1-bd60-bd06c2b88f45}; !- Port 2

OS:Sizing:Zone,
  {bfd8e292-8357-4c0a-989a-4db9ac903bc7}, !- Handle
  {93f4da18-204a-4c1b-8e2c-cddae38f6b7d}, !- Zone or ZoneList Name
  SupplyAirTemperature,                   !- Zone Cooling Design Supply Air Temperature Input Method
  14,                                     !- Zone Cooling Design Supply Air Temperature {C}
  11.11,                                  !- Zone Cooling Design Supply Air Temperature Difference {deltaC}
  SupplyAirTemperature,                   !- Zone Heating Design Supply Air Temperature Input Method
  40,                                     !- Zone Heating Design Supply Air Temperature {C}
  11.11,                                  !- Zone Heating Design Supply Air Temperature Difference {deltaC}
  0.0085,                                 !- Zone Cooling Design Supply Air Humidity Ratio {kg-H2O/kg-air}
  0.008,                                  !- Zone Heating Design Supply Air Humidity Ratio {kg-H2O/kg-air}
  ,                                       !- Zone Heating Sizing Factor
  ,                                       !- Zone Cooling Sizing Factor
  DesignDay,                              !- Cooling Design Air Flow Method
  ,                                       !- Cooling Design Air Flow Rate {m3/s}
  ,                                       !- Cooling Minimum Air Flow per Zone Floor Area {m3/s-m2}
  ,                                       !- Cooling Minimum Air Flow {m3/s}
  ,                                       !- Cooling Minimum Air Flow Fraction
  DesignDay,                              !- Heating Design Air Flow Method
  ,                                       !- Heating Design Air Flow Rate {m3/s}
  ,                                       !- Heating Maximum Air Flow per Zone Floor Area {m3/s-m2}
  ,                                       !- Heating Maximum Air Flow {m3/s}
  ,                                       !- Heating Maximum Air Flow Fraction
  ,                                       !- Design Zone Air Distribution Effectiveness in Cooling Mode
  ,                                       !- Design Zone Air Distribution Effectiveness in Heating Mode
  No,                                     !- Account for Dedicated Outdoor Air System
  NeutralSupplyAir,                       !- Dedicated Outdoor Air System Control Strategy
  autosize,                               !- Dedicated Outdoor Air Low Setpoint Temperature for Design {C}
  autosize;                               !- Dedicated Outdoor Air High Setpoint Temperature for Design {C}

OS:ZoneHVAC:EquipmentList,
  {f72cf3e4-593a-48c7-b955-3cfcb78ab875}, !- Handle
  Zone HVAC Equipment List 1,             !- Name
  {93f4da18-204a-4c1b-8e2c-cddae38f6b7d}, !- Thermal Zone
  SequentialLoad,                         !- Load Distribution Scheme
  {4523f245-677f-4487-8b15-1f61f8856b5c}, !- Zone Equipment 1
  1,                                      !- Zone Equipment Cooling Sequence 1
  1,                                      !- Zone Equipment Heating or No-Load Sequence 1
  ,                                       !- Zone Equipment Sequential Cooling Fraction Schedule Name 1
  ,                                       !- Zone Equipment Sequential Heating Fraction Schedule Name 1
  {98bc7ab8-9e25-4910-afaf-4e79c25773b5}, !- Zone Equipment 2
  2,                                      !- Zone Equipment Cooling Sequence 2
  2,                                      !- Zone Equipment Heating or No-Load Sequence 2
  ,                                       !- Zone Equipment Sequential Cooling Fraction Schedule Name 2
  ;                                       !- Zone Equipment Sequential Heating Fraction Schedule Name 2

OS:Space,
  {1f756840-4a3e-4c5d-b80f-22e0b16c68f8}, !- Handle
  living space,                           !- Name
  {127fdce2-1a42-4f1b-90fc-1690637b1a35}, !- Space Type Name
  ,                                       !- Default Construction Set Name
  ,                                       !- Default Schedule Set Name
  -0,                                     !- Direction of Relative North {deg}
  0,                                      !- X Origin {m}
  0,                                      !- Y Origin {m}
  0,                                      !- Z Origin {m}
  ,                                       !- Building Story Name
  {93f4da18-204a-4c1b-8e2c-cddae38f6b7d}, !- Thermal Zone Name
  ,                                       !- Part of Total Floor Area
  ,                                       !- Design Specification Outdoor Air Object Name
  {a0be7bde-6ea3-498a-a81b-25df8dc09292}; !- Building Unit Name

OS:Surface,
  {addb20c0-89fb-4c73-af3e-55b6f0a37c99}, !- Handle
  Surface 1,                              !- Name
  Floor,                                  !- Surface Type
  {3abdefe2-5467-4187-8ff0-ff4701f64d73}, !- Construction Name
  {1f756840-4a3e-4c5d-b80f-22e0b16c68f8}, !- Space Name
  Foundation,                             !- Outside Boundary Condition
  {836d886b-29fa-4491-9005-2c7f127e4b00}, !- Outside Boundary Condition Object
  NoSun,                                  !- Sun Exposure
  NoWind,                                 !- Wind Exposure
  ,                                       !- View Factor to Ground
  ,                                       !- Number of Vertices
  0, 0, 0,                                !- X,Y,Z Vertex 1 {m}
  0, 1.524, 0,                            !- X,Y,Z Vertex 2 {m}
  3.048, 1.524, 0,                        !- X,Y,Z Vertex 3 {m}
  3.048, 0, 0;                            !- X,Y,Z Vertex 4 {m}

OS:Surface,
  {b8f198e9-698f-4008-8936-85fe900a0f88}, !- Handle
  Surface 2,                              !- Name
  Wall,                                   !- Surface Type
  {12a5a492-96be-4e42-ba43-02b47fa7598b}, !- Construction Name
  {1f756840-4a3e-4c5d-b80f-22e0b16c68f8}, !- Space Name
  Outdoors,                               !- Outside Boundary Condition
  ,                                       !- Outside Boundary Condition Object
  SunExposed,                             !- Sun Exposure
  WindExposed,                            !- Wind Exposure
  ,                                       !- View Factor to Ground
  ,                                       !- Number of Vertices
  0, 1.524, 2.4384,                       !- X,Y,Z Vertex 1 {m}
  0, 1.524, 0,                            !- X,Y,Z Vertex 2 {m}
  0, 0, 0,                                !- X,Y,Z Vertex 3 {m}
  0, 0, 2.4384;                           !- X,Y,Z Vertex 4 {m}

OS:Surface,
  {e998c76d-63cc-4e69-a9f1-3196f4bcbaf2}, !- Handle
  Surface 3,                              !- Name
  Wall,                                   !- Surface Type
  {12a5a492-96be-4e42-ba43-02b47fa7598b}, !- Construction Name
  {1f756840-4a3e-4c5d-b80f-22e0b16c68f8}, !- Space Name
  Outdoors,                               !- Outside Boundary Condition
  ,                                       !- Outside Boundary Condition Object
  SunExposed,                             !- Sun Exposure
  WindExposed,                            !- Wind Exposure
  ,                                       !- View Factor to Ground
  ,                                       !- Number of Vertices
  3.048, 1.524, 2.4384,                   !- X,Y,Z Vertex 1 {m}
  3.048, 1.524, 0,                        !- X,Y,Z Vertex 2 {m}
  0, 1.524, 0,                            !- X,Y,Z Vertex 3 {m}
  0, 1.524, 2.4384;                       !- X,Y,Z Vertex 4 {m}

OS:Surface,
  {e772e205-485c-4326-aade-927cf31fc3d3}, !- Handle
  Surface 4,                              !- Name
  Wall,                                   !- Surface Type
  {12a5a492-96be-4e42-ba43-02b47fa7598b}, !- Construction Name
  {1f756840-4a3e-4c5d-b80f-22e0b16c68f8}, !- Space Name
  Outdoors,                               !- Outside Boundary Condition
  ,                                       !- Outside Boundary Condition Object
  SunExposed,                             !- Sun Exposure
  WindExposed,                            !- Wind Exposure
  ,                                       !- View Factor to Ground
  ,                                       !- Number of Vertices
  3.048, 0, 2.4384,                       !- X,Y,Z Vertex 1 {m}
  3.048, 0, 0,                            !- X,Y,Z Vertex 2 {m}
  3.048, 1.524, 0,                        !- X,Y,Z Vertex 3 {m}
  3.048, 1.524, 2.4384;                   !- X,Y,Z Vertex 4 {m}

OS:Surface,
  {da08b9d6-8936-420a-ac4f-063380676a66}, !- Handle
  Surface 5,                              !- Name
  Wall,                                   !- Surface Type
  {12a5a492-96be-4e42-ba43-02b47fa7598b}, !- Construction Name
  {1f756840-4a3e-4c5d-b80f-22e0b16c68f8}, !- Space Name
  Outdoors,                               !- Outside Boundary Condition
  ,                                       !- Outside Boundary Condition Object
  SunExposed,                             !- Sun Exposure
  WindExposed,                            !- Wind Exposure
  ,                                       !- View Factor to Ground
  ,                                       !- Number of Vertices
  3.048, 0, 0,                            !- X,Y,Z Vertex 1 {m}
  3.048, 0, 2.4384,                       !- X,Y,Z Vertex 2 {m}
  1.04865714285714, 0, 2.4384,            !- X,Y,Z Vertex 3 {m}
  1.04865714285714, 0, 0;                 !- X,Y,Z Vertex 4 {m}

OS:Surface,
  {dd1e2ee3-2c15-4ae7-a4be-db17898b10e3}, !- Handle
  Surface 6,                              !- Name
  RoofCeiling,                            !- Surface Type
  {9548d804-2a1d-469a-9074-290d9049b3ae}, !- Construction Name
  {1f756840-4a3e-4c5d-b80f-22e0b16c68f8}, !- Space Name
  Surface,                                !- Outside Boundary Condition
  {6745a7ab-4b72-45e9-8847-eb6663b22a4a}, !- Outside Boundary Condition Object
  NoSun,                                  !- Sun Exposure
  NoWind,                                 !- Wind Exposure
  ,                                       !- View Factor to Ground
  ,                                       !- Number of Vertices
  3.048, 0, 2.4384,                       !- X,Y,Z Vertex 1 {m}
  3.048, 1.524, 2.4384,                   !- X,Y,Z Vertex 2 {m}
  0, 1.524, 2.4384,                       !- X,Y,Z Vertex 3 {m}
  0, 0, 2.4384;                           !- X,Y,Z Vertex 4 {m}

OS:SpaceType,
  {127fdce2-1a42-4f1b-90fc-1690637b1a35}, !- Handle
  Space Type 1,                           !- Name
  ,                                       !- Default Construction Set Name
  ,                                       !- Default Schedule Set Name
  ,                                       !- Group Rendering Name
  ,                                       !- Design Specification Outdoor Air Object Name
  ,                                       !- Standards Template
  ,                                       !- Standards Building Type
  living;                                 !- Standards Space Type

OS:Space,
  {5c6cafa9-77b4-42da-97b8-833e3ad4a8d0}, !- Handle
  living space|story 2,                   !- Name
  {127fdce2-1a42-4f1b-90fc-1690637b1a35}, !- Space Type Name
  ,                                       !- Default Construction Set Name
  ,                                       !- Default Schedule Set Name
  -0,                                     !- Direction of Relative North {deg}
  0,                                      !- X Origin {m}
  0,                                      !- Y Origin {m}
  2.4384,                                 !- Z Origin {m}
  ,                                       !- Building Story Name
  {93f4da18-204a-4c1b-8e2c-cddae38f6b7d}, !- Thermal Zone Name
  ,                                       !- Part of Total Floor Area
  ,                                       !- Design Specification Outdoor Air Object Name
  {a0be7bde-6ea3-498a-a81b-25df8dc09292}; !- Building Unit Name

OS:Surface,
  {6745a7ab-4b72-45e9-8847-eb6663b22a4a}, !- Handle
  Surface 7,                              !- Name
  Floor,                                  !- Surface Type
  {ed41ef94-d30a-45b1-b43c-f096b0ecfc2f}, !- Construction Name
  {5c6cafa9-77b4-42da-97b8-833e3ad4a8d0}, !- Space Name
  Surface,                                !- Outside Boundary Condition
  {dd1e2ee3-2c15-4ae7-a4be-db17898b10e3}, !- Outside Boundary Condition Object
  NoSun,                                  !- Sun Exposure