!- NOTE: Auto-generated from /test/osw_files/SFD_HVACSizing_Equip_MSHP_Autosize.osw

OS:Version,
  {b65172dc-e502-4254-95c1-433af341ac00}, !- Handle
  2.8.0;                                  !- Version Identifier

OS:SimulationControl,
  {6c2cb218-b305-48a0-93a8-647d673d74ce}, !- Handle
  ,                                       !- Do Zone Sizing Calculation
  ,                                       !- Do System Sizing Calculation
  ,                                       !- Do Plant Sizing Calculation
  No;                                     !- Run Simulation for Sizing Periods

OS:Timestep,
  {9e98ee91-55e2-4a56-9d1e-ea55fdd7d2af}, !- Handle
  6;                                      !- Number of Timesteps per Hour

OS:ShadowCalculation,
  {61ba81dc-3516-4480-8963-7b335fd8757f}, !- Handle
  20,                                     !- Calculation Frequency
  200;                                    !- Maximum Figures in Shadow Overlap Calculations

OS:SurfaceConvectionAlgorithm:Outside,
  {29296a6b-7d51-4f23-ba6e-36e99a85e2fc}, !- Handle
  DOE-2;                                  !- Algorithm

OS:SurfaceConvectionAlgorithm:Inside,
  {ba062ca0-d952-47e4-9382-734b3839077e}, !- Handle
  TARP;                                   !- Algorithm

OS:ZoneCapacitanceMultiplier:ResearchSpecial,
  {da6ff03a-ce7c-4ddd-8640-d6c46b097ce7}, !- Handle
  ,                                       !- Temperature Capacity Multiplier
  15,                                     !- Humidity Capacity Multiplier
  ;                                       !- Carbon Dioxide Capacity Multiplier

OS:RunPeriod,
  {61b0c109-0ff9-4f81-9cd9-956a0429fc84}, !- Handle
  Run Period 1,                           !- Name
  1,                                      !- Begin Month
  1,                                      !- Begin Day of Month
  12,                                     !- End Month
  31,                                     !- End Day of Month
  ,                                       !- Use Weather File Holidays and Special Days
  ,                                       !- Use Weather File Daylight Saving Period
  ,                                       !- Apply Weekend Holiday Rule
  ,                                       !- Use Weather File Rain Indicators
  ,                                       !- Use Weather File Snow Indicators
  ;                                       !- Number of Times Runperiod to be Repeated

OS:YearDescription,
  {74a0d66d-5ca1-454d-b623-f5b4e139495a}, !- Handle
  2007,                                   !- Calendar Year
  ,                                       !- Day of Week for Start Day
  ;                                       !- Is Leap Year

OS:WeatherFile,
  {bf6efabf-1eb9-465a-8510-980e581de03b}, !- Handle
  Denver Intl Ap,                         !- City
  CO,                                     !- State Province Region
  USA,                                    !- Country
  TMY3,                                   !- Data Source
  725650,                                 !- WMO Number
  39.83,                                  !- Latitude {deg}
  -104.65,                                !- Longitude {deg}
  -7,                                     !- Time Zone {hr}
  1650,                                   !- Elevation {m}
  file:../weather/USA_CO_Denver.Intl.AP.725650_TMY3.epw, !- Url
  E23378AA;                               !- Checksum

OS:AdditionalProperties,
  {548c5d56-2f1f-458d-9c1e-03888be3ca51}, !- Handle
  {bf6efabf-1eb9-465a-8510-980e581de03b}, !- Object Name
  EPWHeaderCity,                          !- Feature Name 1
  String,                                 !- Feature Data Type 1
  Denver Intl Ap,                         !- Feature Value 1
  EPWHeaderState,                         !- Feature Name 2
  String,                                 !- Feature Data Type 2
  CO,                                     !- Feature Value 2
  EPWHeaderCountry,                       !- Feature Name 3
  String,                                 !- Feature Data Type 3
  USA,                                    !- Feature Value 3
  EPWHeaderDataSource,                    !- Feature Name 4
  String,                                 !- Feature Data Type 4
  TMY3,                                   !- Feature Value 4
  EPWHeaderStation,                       !- Feature Name 5
  String,                                 !- Feature Data Type 5
  725650,                                 !- Feature Value 5
  EPWHeaderLatitude,                      !- Feature Name 6
  Double,                                 !- Feature Data Type 6
  39.829999999999998,                     !- Feature Value 6
  EPWHeaderLongitude,                     !- Feature Name 7
  Double,                                 !- Feature Data Type 7
  -104.65000000000001,                    !- Feature Value 7
  EPWHeaderTimezone,                      !- Feature Name 8
  Double,                                 !- Feature Data Type 8
  -7,                                     !- Feature Value 8
  EPWHeaderAltitude,                      !- Feature Name 9
  Double,                                 !- Feature Data Type 9
  5413.3858267716532,                     !- Feature Value 9
  EPWHeaderLocalPressure,                 !- Feature Name 10
  Double,                                 !- Feature Data Type 10
  0.81937567683596546,                    !- Feature Value 10
  EPWHeaderRecordsPerHour,                !- Feature Name 11
  Double,                                 !- Feature Data Type 11
  0,                                      !- Feature Value 11
  EPWDataAnnualAvgDrybulb,                !- Feature Name 12
  Double,                                 !- Feature Data Type 12
  51.575616438356228,                     !- Feature Value 12
  EPWDataAnnualMinDrybulb,                !- Feature Name 13
  Double,                                 !- Feature Data Type 13
  -2.9200000000000017,                    !- Feature Value 13
  EPWDataAnnualMaxDrybulb,                !- Feature Name 14
  Double,                                 !- Feature Data Type 14
  104,                                    !- Feature Value 14
  EPWDataCDD50F,                          !- Feature Name 15
  Double,                                 !- Feature Data Type 15
  3072.2925000000005,                     !- Feature Value 15
  EPWDataCDD65F,                          !- Feature Name 16
  Double,                                 !- Feature Data Type 16
  883.62000000000035,                     !- Feature Value 16
  EPWDataHDD50F,                          !- Feature Name 17
  Double,                                 !- Feature Data Type 17
  2497.1925000000001,                     !- Feature Value 17
  EPWDataHDD65F,                          !- Feature Name 18
  Double,                                 !- Feature Data Type 18
  5783.5200000000013,                     !- Feature Value 18
  EPWDataAnnualAvgWindspeed,              !- Feature Name 19
  Double,                                 !- Feature Data Type 19
  3.9165296803649667,                     !- Feature Value 19
  EPWDataMonthlyAvgDrybulbs,              !- Feature Name 20
  String,                                 !- Feature Data Type 20
  33.4191935483871&#4431.90142857142857&#4443.02620967741937&#4442.48624999999999&#4459.877741935483854&#4473.57574999999997&#4472.07975806451608&#4472.70008064516134&#4466.49200000000006&#4450.079112903225806&#4437.218250000000005&#4434.582177419354835, !- Feature Value 20
  EPWDataGroundMonthlyTemps,              !- Feature Name 21
  String,                                 !- Feature Data Type 21
  44.08306285945173&#4440.89570904991865&#4440.64045432632048&#4442.153016571250646&#4448.225111118704206&#4454.268919273837525&#4459.508577937551024&#4462.82777283423508&#4463.10975667174995&#4460.41014950381947&#4455.304105212311526&#4449.445696474514364, !- Feature Value 21
  EPWDataWSF,                             !- Feature Name 22
  Double,                                 !- Feature Data Type 22
  0.58999999999999997,                    !- Feature Value 22
  EPWDataMonthlyAvgDailyHighDrybulbs,     !- Feature Name 23
  String,                                 !- Feature Data Type 23
  47.41032258064516&#4446.58642857142857&#4455.15032258064517&#4453.708&#4472.80193548387098&#4488.67600000000002&#4486.1858064516129&#4485.87225806451613&#4482.082&#4463.18064516129033&#4448.73400000000001&#4448.87935483870968, !- Feature Value 23
  EPWDataMonthlyAvgDailyLowDrybulbs,      !- Feature Name 24
  String,                                 !- Feature Data Type 24
  19.347741935483874&#4419.856428571428573&#4430.316129032258065&#4431.112&#4447.41612903225806&#4457.901999999999994&#4459.063870967741934&#4460.956774193548384&#4452.352000000000004&#4438.41612903225806&#4427.002000000000002&#4423.02903225806451, !- Feature Value 24
  EPWDesignHeatingDrybulb,                !- Feature Name 25
  Double,                                 !- Feature Data Type 25
  12.02,                                  !- Feature Value 25
  EPWDesignHeatingWindspeed,              !- Feature Name 26
  Double,                                 !- Feature Data Type 26
  2.8062500000000004,                     !- Feature Value 26
  EPWDesignCoolingDrybulb,                !- Feature Name 27
  Double,                                 !- Feature Data Type 27
  91.939999999999998,                     !- Feature Value 27
  EPWDesignCoolingWetbulb,                !- Feature Name 28
  Double,                                 !- Feature Data Type 28
  59.95131430195849,                      !- Feature Value 28
  EPWDesignCoolingHumidityRatio,          !- Feature Name 29
  Double,                                 !- Feature Data Type 29
  0.0059161086834698092,                  !- Feature Value 29
  EPWDesignCoolingWindspeed,              !- Feature Name 30
  Double,                                 !- Feature Data Type 30
  3.7999999999999989,                     !- Feature Value 30
  EPWDesignDailyTemperatureRange,         !- Feature Name 31
  Double,                                 !- Feature Data Type 31
  24.915483870967748,                     !- Feature Value 31
  EPWDesignDehumidDrybulb,                !- Feature Name 32
  Double,                                 !- Feature Data Type 32
  67.996785714285721,                     !- Feature Value 32
  EPWDesignDehumidHumidityRatio,          !- Feature Name 33
  Double,                                 !- Feature Data Type 33
  0.012133744170488724,                   !- Feature Value 33
  EPWDesignCoolingDirectNormal,           !- Feature Name 34
  Double,                                 !- Feature Data Type 34
  985,                                    !- Feature Value 34
  EPWDesignCoolingDiffuseHorizontal,      !- Feature Name 35
  Double,                                 !- Feature Data Type 35
  84;                                     !- Feature Value 35

OS:Site,
  {7b46d81a-050f-4285-b926-a4f6652f783b}, !- Handle
  Denver Intl Ap_CO_USA,                  !- Name
  39.83,                                  !- Latitude {deg}
  -104.65,                                !- Longitude {deg}
  -7,                                     !- Time Zone {hr}
  1650,                                   !- Elevation {m}
  Suburbs;                                !- Terrain

OS:ClimateZones,
  {b561c991-2f24-41e0-a61a-45ed587b3e0a}, !- Handle
  ,                                       !- Active Institution
  ,                                       !- Active Year
  ,                                       !- Climate Zone Institution Name 1
  ,                                       !- Climate Zone Document Name 1
  ,                                       !- Climate Zone Document Year 1
  ,                                       !- Climate Zone Value 1
  Building America,                       !- Climate Zone Institution Name 2
  ,                                       !- Climate Zone Document Name 2
  0,                                      !- Climate Zone Document Year 2
  Cold;                                   !- Climate Zone Value 2

OS:Site:WaterMainsTemperature,
  {7e419b8b-f30a-4fe8-87a8-7496a244ece4}, !- Handle
  Correlation,                            !- Calculation Method
  ,                                       !- Temperature Schedule Name
  10.8753424657535,                       !- Annual Average Outdoor Air Temperature {C}
  23.1524007936508;                       !- Maximum Difference In Monthly Average Outdoor Air Temperatures {deltaC}

OS:RunPeriodControl:DaylightSavingTime,
  {189fb30f-edc7-4b38-b290-0ab53fe03555}, !- Handle
  4/7,                                    !- Start Date
  10/26;                                  !- End Date

OS:Site:GroundTemperature:Deep,
  {abb40a19-0770-4e7d-bcff-82afd4a20144}, !- Handle
  10.8753424657535,                       !- January Deep Ground Temperature {C}
  10.8753424657535,                       !- February Deep Ground Temperature {C}
  10.8753424657535,                       !- March Deep Ground Temperature {C}
  10.8753424657535,                       !- April Deep Ground Temperature {C}
  10.8753424657535,                       !- May Deep Ground Temperature {C}
  10.8753424657535,                       !- June Deep Ground Temperature {C}
  10.8753424657535,                       !- July Deep Ground Temperature {C}
  10.8753424657535,                       !- August Deep Ground Temperature {C}
  10.8753424657535,                       !- September Deep Ground Temperature {C}
  10.8753424657535,                       !- October Deep Ground Temperature {C}
  10.8753424657535,                       !- November Deep Ground Temperature {C}
  10.8753424657535;                       !- December Deep Ground Temperature {C}

OS:ThermalZone,
  {efd2b3ac-d025-4758-a0ff-06573d91e8d8}, !- Handle
  living zone,                            !- Name
  ,                                       !- Multiplier
  ,                                       !- Ceiling Height {m}
  ,                                       !- Volume {m3}
  ,                                       !- Floor Area {m2}
  ,                                       !- Zone Inside Convection Algorithm
  ,                                       !- Zone Outside Convection Algorithm
  ,                                       !- Zone Conditioning Equipment List Name
  {14b1fa8b-d4a9-4581-b364-805177e92922}, !- Zone Air Inlet Port List
  {d8c87a63-a534-4c7c-b682-329fdf2a6e31}, !- Zone Air Exhaust Port List
  {e4ac9912-8d97-4091-9fa5-31d8f32e87ff}, !- Zone Air Node Name
  {9d1cab48-f0ce-49b1-acf5-ff8a8e73bd0b}, !- Zone Return Air Port List
  ,                                       !- Primary Daylighting Control Name
  ,                                       !- Fraction of Zone Controlled by Primary Daylighting Control
  ,                                       !- Secondary Daylighting Control Name
  ,                                       !- Fraction of Zone Controlled by Secondary Daylighting Control
  ,                                       !- Illuminance Map Name
  ,                                       !- Group Rendering Name
  {b4a5e6df-f718-4f31-9ec3-97f9284c5847}, !- Thermostat Name
  No;                                     !- Use Ideal Air Loads

OS:Node,
  {cf2e082a-7a55-44e5-8190-86f195bb3d39}, !- Handle
  Node 1,                                 !- Name
  {e4ac9912-8d97-4091-9fa5-31d8f32e87ff}, !- Inlet Port
  ;                                       !- Outlet Port

OS:Connection,
  {e4ac9912-8d97-4091-9fa5-31d8f32e87ff}, !- Handle
  {ee3cb5e0-b215-4eeb-83a1-b3f5a5740243}, !- Name
  {efd2b3ac-d025-4758-a0ff-06573d91e8d8}, !- Source Object
  11,                                     !- Outlet Port
  {cf2e082a-7a55-44e5-8190-86f195bb3d39}, !- Target Object
  2;                                      !- Inlet Port

OS:PortList,
  {14b1fa8b-d4a9-4581-b364-805177e92922}, !- Handle
  {fbb0b8f6-a230-4240-866c-e33c9b5bbb39}, !- Name
  {efd2b3ac-d025-4758-a0ff-06573d91e8d8}, !- HVAC Component
  {e63dca03-ec02-4525-827d-a76f3fc10093}, !- Port 1
  {4acebf15-f07b-4227-921e-29faec888f10}; !- Port 2

OS:PortList,
  {d8c87a63-a534-4c7c-b682-329fdf2a6e31}, !- Handle
  {ed4f1c5e-83d7-4c57-9017-1da46e8d6b36}, !- Name
  {efd2b3ac-d025-4758-a0ff-06573d91e8d8}; !- HVAC Component

OS:PortList,
  {9d1cab48-f0ce-49b1-acf5-ff8a8e73bd0b}, !- Handle
  {ac29a649-4c9e-483f-997f-63622d18f7bb}, !- Name
  {efd2b3ac-d025-4758-a0ff-06573d91e8d8}, !- HVAC Component
  {071ee198-dd31-468a-aff0-9438624168db}, !- Port 1
  {04b80eaf-849e-421c-ad35-0e426bec702a}; !- Port 2

OS:Sizing:Zone,
  {6bb5a27c-45d8-4646-86fe-a8416a305a21}, !- Handle
  {efd2b3ac-d025-4758-a0ff-06573d91e8d8}, !- Zone or ZoneList Name
  SupplyAirTemperature,                   !- Zone Cooling Design Supply Air Temperature Input Method
  14,                                     !- Zone Cooling Design Supply Air Temperature {C}
  11.11,                                  !- Zone Cooling Design Supply Air Temperature Difference {deltaC}
  SupplyAirTemperature,                   !- Zone Heating Design Supply Air Temperature Input Method
  40,                                     !- Zone Heating Design Supply Air Temperature {C}
  11.11,                                  !- Zone Heating Design Supply Air Temperature Difference {deltaC}
  0.0085,                                 !- Zone Cooling Design Supply Air Humidity Ratio {kg-H2O/kg-air}
  0.008,                                  !- Zone Heating Design Supply Air Humidity Ratio {kg-H2O/kg-air}
  ,                                       !- Zone Heating Sizing Factor
  ,                                       !- Zone Cooling Sizing Factor
  DesignDay,                              !- Cooling Design Air Flow Method
  ,                                       !- Cooling Design Air Flow Rate {m3/s}
  ,                                       !- Cooling Minimum Air Flow per Zone Floor Area {m3/s-m2}
  ,                                       !- Cooling Minimum Air Flow {m3/s}
  ,                                       !- Cooling Minimum Air Flow Fraction
  DesignDay,                              !- Heating Design Air Flow Method
  ,                                       !- Heating Design Air Flow Rate {m3/s}
  ,                                       !- Heating Maximum Air Flow per Zone Floor Area {m3/s-m2}
  ,                                       !- Heating Maximum Air Flow {m3/s}
  ,                                       !- Heating Maximum Air Flow Fraction
  ,                                       !- Design Zone Air Distribution Effectiveness in Cooling Mode
  ,                                       !- Design Zone Air Distribution Effectiveness in Heating Mode
  No,                                     !- Account for Dedicated Outdoor Air System
  NeutralSupplyAir,                       !- Dedicated Outdoor Air System Control Strategy
  autosize,                               !- Dedicated Outdoor Air Low Setpoint Temperature for Design {C}
  autosize;                               !- Dedicated Outdoor Air High Setpoint Temperature for Design {C}

OS:ZoneHVAC:EquipmentList,
  {ab01b459-e572-4042-a96d-281910d8fb77}, !- Handle
  Zone HVAC Equipment List 1,             !- Name
  {efd2b3ac-d025-4758-a0ff-06573d91e8d8}, !- Thermal Zone
  SequentialLoad,                         !- Load Distribution Scheme
  {ccc20872-2ad6-46b4-8169-f880c932fb22}, !- Zone Equipment 1
  1,                                      !- Zone Equipment Cooling Sequence 1
  1,                                      !- Zone Equipment Heating or No-Load Sequence 1
  ,                                       !- Zone Equipment Sequential Cooling Fraction 1
  ,                                       !- Zone Equipment Sequential Heating Fraction 1
  {d16fa853-0584-40dc-b166-8818acce7a87}, !- Zone Equipment 2
  2,                                      !- Zone Equipment Cooling Sequence 2
  2,                                      !- Zone Equipment Heating or No-Load Sequence 2
  ,                                       !- Zone Equipment Sequential Cooling Fraction 2
  ;                                       !- Zone Equipment Sequential Heating Fraction 2

OS:ThermalZone,
  {cfbb4199-84f3-4200-b403-16ef70ea1036}, !- Handle
  garage zone,                            !- Name
  ,                                       !- Multiplier
  ,                                       !- Ceiling Height {m}
  ,                                       !- Volume {m3}
  ,                                       !- Floor Area {m2}
  ,                                       !- Zone Inside Convection Algorithm
  ,                                       !- Zone Outside Convection Algorithm
  ,                                       !- Zone Conditioning Equipment List Name
  {61d1c47e-a166-4539-aa5f-b59be2ad9026}, !- Zone Air Inlet Port List
  {8eab2e8e-48e3-41ae-a39d-3f95d9562f09}, !- Zone Air Exhaust Port List
  {13660bcf-423e-4438-9e74-36c6955a0242}, !- Zone Air Node Name
  {6f1b2068-5491-4474-a437-7f8c10e2e279}, !- Zone Return Air Port List
  ,                                       !- Primary Daylighting Control Name
  ,                                       !- Fraction of Zone Controlled by Primary Daylighting Control
  ,                                       !- Secondary Daylighting Control Name
  ,                                       !- Fraction of Zone Controlled by Secondary Daylighting Control
  ,                                       !- Illuminance Map Name
  ,                                       !- Group Rendering Name
  ,                                       !- Thermostat Name
  No;                                     !- Use Ideal Air Loads

OS:Node,
  {8f4af6a3-570a-4c0a-bddd-d1a6c8b9ee4a}, !- Handle
  Node 2,                                 !- Name
  {13660bcf-423e-4438-9e74-36c6955a0242}, !- Inlet Port
  ;                                       !- Outlet Port

OS:Connection,
  {13660bcf-423e-4438-9e74-36c6955a0242}, !- Handle
  {a4c02eda-1d29-4407-bc8a-335096e9a696}, !- Name
  {cfbb4199-84f3-4200-b403-16ef70ea1036}, !- Source Object
  11,                                     !- Outlet Port
  {8f4af6a3-570a-4c0a-bddd-d1a6c8b9ee4a}, !- Target Object
  2;                                      !- Inlet Port

OS:PortList,
  {61d1c47e-a166-4539-aa5f-b59be2ad9026}, !- Handle
  {f6e9e0d0-cb1c-402b-b44f-ee6588b2cf6e}, !- Name
  {cfbb4199-84f3-4200-b403-16ef70ea1036}; !- HVAC Component

OS:PortList,
  {8eab2e8e-48e3-41ae-a39d-3f95d9562f09}, !- Handle
  {088df97f-b1c8-4b28-9f4f-f4a532a34dcb}, !- Name
  {cfbb4199-84f3-4200-b403-16ef70ea1036}; !- HVAC Component

OS:PortList,
  {6f1b2068-5491-4474-a437-7f8c10e2e279}, !- Handle
  {ffb0b2f4-850d-4bf7-89bf-60f0fc99dee3}, !- Name
  {cfbb4199-84f3-4200-b403-16ef70ea1036}; !- HVAC Component

OS:Sizing:Zone,
  {ea684862-d3f0-40ee-86ac-ed737051ef88}, !- Handle
  {cfbb4199-84f3-4200-b403-16ef70ea1036}, !- Zone or ZoneList Name
  SupplyAirTemperature,                   !- Zone Cooling Design Supply Air Temperature Input Method
  14,                                     !- Zone Cooling Design Supply Air Temperature {C}
  11.11,                                  !- Zone Cooling Design Supply Air Temperature Difference {deltaC}
  SupplyAirTemperature,                   !- Zone Heating Design Supply Air Temperature Input Method
  40,                                     !- Zone Heating Design Supply Air Temperature {C}
  11.11,                                  !- Zone Heating Design Supply Air Temperature Difference {deltaC}
  0.0085,                                 !- Zone Cooling Design Supply Air Humidity Ratio {kg-H2O/kg-air}
  0.008,                                  !- Zone Heating Design Supply Air Humidity Ratio {kg-H2O/kg-air}
  ,                                       !- Zone Heating Sizing Factor
  ,                                       !- Zone Cooling Sizing Factor
  DesignDay,                              !- Cooling Design Air Flow Method
  ,                                       !- Cooling Design Air Flow Rate {m3/s}
  ,                                       !- Cooling Minimum Air Flow per Zone Floor Area {m3/s-m2}
  ,                                       !- Cooling Minimum Air Flow {m3/s}
  ,                                       !- Cooling Minimum Air Flow Fraction
  DesignDay,                              !- Heating Design Air Flow Method
  ,                                       !- Heating Design Air Flow Rate {m3/s}
  ,                                       !- Heating Maximum Air Flow per Zone Floor Area {m3/s-m2}
  ,                                       !- Heating Maximum Air Flow {m3/s}
  ,                                       !- Heating Maximum Air Flow Fraction
  ,                                       !- Design Zone Air Distribution Effectiveness in Cooling Mode
  ,                                       !- Design Zone Air Distribution Effectiveness in Heating Mode
  No,                                     !- Account for Dedicated Outdoor Air System
  NeutralSupplyAir,                       !- Dedicated Outdoor Air System Control Strategy
  autosize,                               !- Dedicated Outdoor Air Low Setpoint Temperature for Design {C}
  autosize;                               !- Dedicated Outdoor Air High Setpoint Temperature for Design {C}

OS:ZoneHVAC:EquipmentList,
  {712d8bc5-7715-4b88-b79b-79988d227700}, !- Handle
  Zone HVAC Equipment List 2,             !- Name
  {cfbb4199-84f3-4200-b403-16ef70ea1036}; !- Thermal Zone

OS:Space,
  {7c7aad50-b667-4f43-86ca-82e11c0d101d}, !- Handle
  garage space,                           !- Name
  {c813d431-09be-4748-813e-9706ffd27bf0}, !- Space Type Name
  ,                                       !- Default Construction Set Name
  ,                                       !- Default Schedule Set Name
  -0,                                     !- Direction of Relative North {deg}
  0,                                      !- X Origin {m}
  0,                                      !- Y Origin {m}
  0,                                      !- Z Origin {m}
  ,                                       !- Building Story Name
  {cfbb4199-84f3-4200-b403-16ef70ea1036}; !- Thermal Zone Name

OS:Surface,
  {645d07ca-e0b8-486a-9eb5-720bab603848}, !- Handle
  Surface 1,                              !- Name
  Floor,                                  !- Surface Type
  {9ee0a363-8884-44be-81e1-e88913ab2175}, !- Construction Name
  {7c7aad50-b667-4f43-86ca-82e11c0d101d}, !- Space Name
  Foundation,                             !- Outside Boundary Condition
  {3a7ef961-9c7f-4d7d-a51e-6ada11b5fcbc}, !- Outside Boundary Condition Object
  NoSun,                                  !- Sun Exposure
  NoWind,                                 !- Wind Exposure
  ,                                       !- View Factor to Ground
  ,                                       !- Number of Vertices
  8.91701625975123, -3.048, 0,            !- X,Y,Z Vertex 1 {m}
  8.91701625975123, 3.048, 0,             !- X,Y,Z Vertex 2 {m}
  12.5746162597512, 3.048, 0,             !- X,Y,Z Vertex 3 {m}
  12.5746162597512, -3.048, 0;            !- X,Y,Z Vertex 4 {m}

OS:Surface,
  {c467267d-0a41-4e04-bf23-ee3d6003a026}, !- Handle
  Surface 2,                              !- Name
  Wall,                                   !- Surface Type
  {2e382915-a9db-4bf7-9ea6-59c65180d287}, !- Construction Name
  {7c7aad50-b667-4f43-86ca-82e11c0d101d}, !- Space Name
  Surface,                                !- Outside Boundary Condition
  {7afac37f-16cc-4e2a-aab6-8b24d8d49251}, !- Outside Boundary Condition Object
  NoSun,                                  !- Sun Exposure
  NoWind,                                 !- Wind Exposure
  ,                                       !- View Factor to Ground
  ,                                       !- Number of Vertices
  8.91701625975123, 3.048, 2.4384,        !- X,Y,Z Vertex 1 {m}
  8.91701625975123, 3.048, 0,             !- X,Y,Z Vertex 2 {m}
  8.91701625975123, 0, 0,                 !- X,Y,Z Vertex 3 {m}
  8.91701625975123, 0, 2.4384;            !- X,Y,Z Vertex 4 {m}

OS:Surface,
  {a2430ba4-3803-4097-9168-c872669cb645}, !- Handle
  Surface 3,                              !- Name
  Wall,                                   !- Surface Type
  {2e382915-a9db-4bf7-9ea6-59c65180d287}, !- Construction Name
  {7c7aad50-b667-4f43-86ca-82e11c0d101d}, !- Space Name
  Surface,                                !- Outside Boundary Condition
  {1f023cdb-26fa-4f38-81f8-825def75c453}, !- Outside Boundary Condition Object
  NoSun,                                  !- Sun Exposure
  NoWind,                                 !- Wind Exposure
  ,                                       !- View Factor to Ground
  ,                                       !- Number of Vertices
  12.5746162597512, 3.048, 2.4384,        !- X,Y,Z Vertex 1 {m}
  12.5746162597512, 3.048, 0,             !- X,Y,Z Vertex 2 {m}
  8.91701625975123, 3.048, 0,             !- X,Y,Z Vertex 3 {m}
  8.91701625975123, 3.048, 2.4384;        !- X,Y,Z Vertex 4 {m}

OS:Surface,
  {0f5efbd3-195f-479e-976b-edff2caf55cb}, !- Handle
  Surface 4,                              !- Name
  Wall,                                   !- Surface Type
  {c44dc5cf-eb6d-4d5a-8286-53e3c56fadf8}, !- Construction Name
  {7c7aad50-b667-4f43-86ca-82e11c0d101d}, !- Space Name
  Outdoors,                               !- Outside Boundary Condition
  ,                                       !- Outside Boundary Condition Object
  SunExposed,                             !- Sun Exposure
  WindExposed,                            !- Wind Exposure
  ,                                       !- View Factor to Ground
  ,                                       !- Number of Vertices
  12.5746162597512, -3.048, 2.4384,       !- X,Y,Z Vertex 1 {m}
  12.5746162597512, -3.048, 0,            !- X,Y,Z Vertex 2 {m}
  12.5746162597512, 3.048, 0,             !- X,Y,Z Vertex 3 {m}