!- NOTE: Auto-generated from /test/osw_files/SFD_HVACSizing_Load_2story_CS_GRG_FA_ASHP_DuctsInCS.osw

OS:Version,
  {201a4a28-5852-4846-9b58-a89a10714d64}, !- Handle
  2.9.0;                                  !- Version Identifier

OS:SimulationControl,
  {969ad1af-1ada-4f71-9cfe-d4d47f2ecf73}, !- Handle
  ,                                       !- Do Zone Sizing Calculation
  ,                                       !- Do System Sizing Calculation
  ,                                       !- Do Plant Sizing Calculation
  No;                                     !- Run Simulation for Sizing Periods

OS:Timestep,
  {2bf422ce-ed19-41e2-9e43-51364f7be398}, !- Handle
  6;                                      !- Number of Timesteps per Hour

OS:ShadowCalculation,
  {5c016b5a-35d2-4fa5-93cf-d53ed1b74a3c}, !- Handle
  20,                                     !- Calculation Frequency
  200;                                    !- Maximum Figures in Shadow Overlap Calculations

OS:SurfaceConvectionAlgorithm:Outside,
  {e7b41558-54ad-4a81-9f42-fc71bc40948e}, !- Handle
  DOE-2;                                  !- Algorithm

OS:SurfaceConvectionAlgorithm:Inside,
  {15ea5aad-6ecb-4f24-950e-7e48bfed7744}, !- Handle
  TARP;                                   !- Algorithm

OS:ZoneCapacitanceMultiplier:ResearchSpecial,
  {39566933-deaf-49da-a6b7-69eca2189ba6}, !- Handle
  ,                                       !- Temperature Capacity Multiplier
  15,                                     !- Humidity Capacity Multiplier
  ;                                       !- Carbon Dioxide Capacity Multiplier

OS:RunPeriod,
  {6836384f-ab91-4aec-a668-b8d5ec663773}, !- Handle
  Run Period 1,                           !- Name
  1,                                      !- Begin Month
  1,                                      !- Begin Day of Month
  12,                                     !- End Month
  31,                                     !- End Day of Month
  ,                                       !- Use Weather File Holidays and Special Days
  ,                                       !- Use Weather File Daylight Saving Period
  ,                                       !- Apply Weekend Holiday Rule
  ,                                       !- Use Weather File Rain Indicators
  ,                                       !- Use Weather File Snow Indicators
  ;                                       !- Number of Times Runperiod to be Repeated

OS:YearDescription,
  {2600585a-7592-4e7d-bde1-0205eae9cec6}, !- Handle
  2007,                                   !- Calendar Year
  ,                                       !- Day of Week for Start Day
  ;                                       !- Is Leap Year

OS:WeatherFile,
  {e53287a4-979b-49ee-8040-5de91619e820}, !- Handle
  Denver Intl Ap,                         !- City
  CO,                                     !- State Province Region
  USA,                                    !- Country
  TMY3,                                   !- Data Source
  725650,                                 !- WMO Number
  39.83,                                  !- Latitude {deg}
  -104.65,                                !- Longitude {deg}
  -7,                                     !- Time Zone {hr}
  1650,                                   !- Elevation {m}
  file:../weather/USA_CO_Denver.Intl.AP.725650_TMY3.epw, !- Url
  E23378AA;                               !- Checksum

OS:AdditionalProperties,
  {aab4ec80-5ba4-4a10-940b-6d5f8f4e3aad}, !- Handle
  {e53287a4-979b-49ee-8040-5de91619e820}, !- Object Name
  EPWHeaderCity,                          !- Feature Name 1
  String,                                 !- Feature Data Type 1
  Denver Intl Ap,                         !- Feature Value 1
  EPWHeaderState,                         !- Feature Name 2
  String,                                 !- Feature Data Type 2
  CO,                                     !- Feature Value 2
  EPWHeaderCountry,                       !- Feature Name 3
  String,                                 !- Feature Data Type 3
  USA,                                    !- Feature Value 3
  EPWHeaderDataSource,                    !- Feature Name 4
  String,                                 !- Feature Data Type 4
  TMY3,                                   !- Feature Value 4
  EPWHeaderStation,                       !- Feature Name 5
  String,                                 !- Feature Data Type 5
  725650,                                 !- Feature Value 5
  EPWHeaderLatitude,                      !- Feature Name 6
  Double,                                 !- Feature Data Type 6
  39.829999999999998,                     !- Feature Value 6
  EPWHeaderLongitude,                     !- Feature Name 7
  Double,                                 !- Feature Data Type 7
  -104.65000000000001,                    !- Feature Value 7
  EPWHeaderTimezone,                      !- Feature Name 8
  Double,                                 !- Feature Data Type 8
  -7,                                     !- Feature Value 8
  EPWHeaderAltitude,                      !- Feature Name 9
  Double,                                 !- Feature Data Type 9
  5413.3858267716532,                     !- Feature Value 9
  EPWHeaderLocalPressure,                 !- Feature Name 10
  Double,                                 !- Feature Data Type 10
  0.81937567683596546,                    !- Feature Value 10
  EPWHeaderRecordsPerHour,                !- Feature Name 11
  Double,                                 !- Feature Data Type 11
  0,                                      !- Feature Value 11
  EPWDataAnnualAvgDrybulb,                !- Feature Name 12
  Double,                                 !- Feature Data Type 12
  51.575616438356228,                     !- Feature Value 12
  EPWDataAnnualMinDrybulb,                !- Feature Name 13
  Double,                                 !- Feature Data Type 13
  -2.9200000000000017,                    !- Feature Value 13
  EPWDataAnnualMaxDrybulb,                !- Feature Name 14
  Double,                                 !- Feature Data Type 14
  104,                                    !- Feature Value 14
  EPWDataCDD50F,                          !- Feature Name 15
  Double,                                 !- Feature Data Type 15
  3072.2925000000005,                     !- Feature Value 15
  EPWDataCDD65F,                          !- Feature Name 16
  Double,                                 !- Feature Data Type 16
  883.62000000000035,                     !- Feature Value 16
  EPWDataHDD50F,                          !- Feature Name 17
  Double,                                 !- Feature Data Type 17
  2497.1925000000001,                     !- Feature Value 17
  EPWDataHDD65F,                          !- Feature Name 18
  Double,                                 !- Feature Data Type 18
  5783.5200000000013,                     !- Feature Value 18
  EPWDataAnnualAvgWindspeed,              !- Feature Name 19
  Double,                                 !- Feature Data Type 19
  3.9165296803649667,                     !- Feature Value 19
  EPWDataMonthlyAvgDrybulbs,              !- Feature Name 20
  String,                                 !- Feature Data Type 20
  33.4191935483871&#4431.90142857142857&#4443.02620967741937&#4442.48624999999999&#4459.877741935483854&#4473.57574999999997&#4472.07975806451608&#4472.70008064516134&#4466.49200000000006&#4450.079112903225806&#4437.218250000000005&#4434.582177419354835, !- Feature Value 20
  EPWDataGroundMonthlyTemps,              !- Feature Name 21
  String,                                 !- Feature Data Type 21
  44.08306285945173&#4440.89570904991865&#4440.64045432632048&#4442.153016571250646&#4448.225111118704206&#4454.268919273837525&#4459.508577937551024&#4462.82777283423508&#4463.10975667174995&#4460.41014950381947&#4455.304105212311526&#4449.445696474514364, !- Feature Value 21
  EPWDataWSF,                             !- Feature Name 22
  Double,                                 !- Feature Data Type 22
  0.58999999999999997,                    !- Feature Value 22
  EPWDataMonthlyAvgDailyHighDrybulbs,     !- Feature Name 23
  String,                                 !- Feature Data Type 23
  47.41032258064516&#4446.58642857142857&#4455.15032258064517&#4453.708&#4472.80193548387098&#4488.67600000000002&#4486.1858064516129&#4485.87225806451613&#4482.082&#4463.18064516129033&#4448.73400000000001&#4448.87935483870968, !- Feature Value 23
  EPWDataMonthlyAvgDailyLowDrybulbs,      !- Feature Name 24
  String,                                 !- Feature Data Type 24
  19.347741935483874&#4419.856428571428573&#4430.316129032258065&#4431.112&#4447.41612903225806&#4457.901999999999994&#4459.063870967741934&#4460.956774193548384&#4452.352000000000004&#4438.41612903225806&#4427.002000000000002&#4423.02903225806451, !- Feature Value 24
  EPWDesignHeatingDrybulb,                !- Feature Name 25
  Double,                                 !- Feature Data Type 25
  12.02,                                  !- Feature Value 25
  EPWDesignHeatingWindspeed,              !- Feature Name 26
  Double,                                 !- Feature Data Type 26
  2.8062500000000004,                     !- Feature Value 26
  EPWDesignCoolingDrybulb,                !- Feature Name 27
  Double,                                 !- Feature Data Type 27
  91.939999999999998,                     !- Feature Value 27
  EPWDesignCoolingWetbulb,                !- Feature Name 28
  Double,                                 !- Feature Data Type 28
  59.95131430195849,                      !- Feature Value 28
  EPWDesignCoolingHumidityRatio,          !- Feature Name 29
  Double,                                 !- Feature Data Type 29
  0.0059161086834698092,                  !- Feature Value 29
  EPWDesignCoolingWindspeed,              !- Feature Name 30
  Double,                                 !- Feature Data Type 30
  3.7999999999999989,                     !- Feature Value 30
  EPWDesignDailyTemperatureRange,         !- Feature Name 31
  Double,                                 !- Feature Data Type 31
  24.915483870967748,                     !- Feature Value 31
  EPWDesignDehumidDrybulb,                !- Feature Name 32
  Double,                                 !- Feature Data Type 32
  67.996785714285721,                     !- Feature Value 32
  EPWDesignDehumidHumidityRatio,          !- Feature Name 33
  Double,                                 !- Feature Data Type 33
  0.012133744170488724,                   !- Feature Value 33
  EPWDesignCoolingDirectNormal,           !- Feature Name 34
  Double,                                 !- Feature Data Type 34
  985,                                    !- Feature Value 34
  EPWDesignCoolingDiffuseHorizontal,      !- Feature Name 35
  Double,                                 !- Feature Data Type 35
  84;                                     !- Feature Value 35

OS:Site,
  {63843aa2-3442-41a2-bd3b-a188f6e25774}, !- Handle
  Denver Intl Ap_CO_USA,                  !- Name
  39.83,                                  !- Latitude {deg}
  -104.65,                                !- Longitude {deg}
  -7,                                     !- Time Zone {hr}
  1650,                                   !- Elevation {m}
  Suburbs;                                !- Terrain

OS:ClimateZones,
  {5a808c70-b7a0-49ec-bba3-e24cd799e0e7}, !- Handle
  ,                                       !- Active Institution
  ,                                       !- Active Year
  ,                                       !- Climate Zone Institution Name 1
  ,                                       !- Climate Zone Document Name 1
  ,                                       !- Climate Zone Document Year 1
  ,                                       !- Climate Zone Value 1
  Building America,                       !- Climate Zone Institution Name 2
  ,                                       !- Climate Zone Document Name 2
  0,                                      !- Climate Zone Document Year 2
  Cold;                                   !- Climate Zone Value 2

OS:Site:WaterMainsTemperature,
  {4f62f003-9b77-43c5-8638-47411802e965}, !- Handle
  Correlation,                            !- Calculation Method
  ,                                       !- Temperature Schedule Name
  10.8753424657535,                       !- Annual Average Outdoor Air Temperature {C}
  23.1524007936508;                       !- Maximum Difference In Monthly Average Outdoor Air Temperatures {deltaC}

OS:RunPeriodControl:DaylightSavingTime,
  {28f6b88c-130b-43ea-ab8c-a941f0e0f518}, !- Handle
  4/7,                                    !- Start Date
  10/26;                                  !- End Date

OS:Site:GroundTemperature:Deep,
  {e3b99fa6-138e-4eec-bd87-0cbde8eaae5f}, !- Handle
  10.8753424657535,                       !- January Deep Ground Temperature {C}
  10.8753424657535,                       !- February Deep Ground Temperature {C}
  10.8753424657535,                       !- March Deep Ground Temperature {C}
  10.8753424657535,                       !- April Deep Ground Temperature {C}
  10.8753424657535,                       !- May Deep Ground Temperature {C}
  10.8753424657535,                       !- June Deep Ground Temperature {C}
  10.8753424657535,                       !- July Deep Ground Temperature {C}
  10.8753424657535,                       !- August Deep Ground Temperature {C}
  10.8753424657535,                       !- September Deep Ground Temperature {C}
  10.8753424657535,                       !- October Deep Ground Temperature {C}
  10.8753424657535,                       !- November Deep Ground Temperature {C}
  10.8753424657535;                       !- December Deep Ground Temperature {C}

OS:ThermalZone,
  {e8bba95e-d6b5-4b84-8ac5-133ee43a33ff}, !- Handle
  living zone,                            !- Name
  ,                                       !- Multiplier
  ,                                       !- Ceiling Height {m}
  ,                                       !- Volume {m3}
  ,                                       !- Floor Area {m2}
  ,                                       !- Zone Inside Convection Algorithm
  ,                                       !- Zone Outside Convection Algorithm
  ,                                       !- Zone Conditioning Equipment List Name
  {070a0391-4f0c-441a-8480-0d14291fbac6}, !- Zone Air Inlet Port List
  {a696d8bb-f219-41ea-84f9-c670097591e4}, !- Zone Air Exhaust Port List
  {adf499f9-6dde-4251-80db-3a7c73ee27ef}, !- Zone Air Node Name
  {08783450-21bd-4628-92b2-c4077f5fcb6e}, !- Zone Return Air Port List
  ,                                       !- Primary Daylighting Control Name
  ,                                       !- Fraction of Zone Controlled by Primary Daylighting Control
  ,                                       !- Secondary Daylighting Control Name
  ,                                       !- Fraction of Zone Controlled by Secondary Daylighting Control
  ,                                       !- Illuminance Map Name
  ,                                       !- Group Rendering Name
  {1596cc05-c3a9-48eb-af9a-30d2df294d10}, !- Thermostat Name
  No;                                     !- Use Ideal Air Loads

OS:Node,
  {f0aa444f-a10e-494e-a7b0-65c0f8fdb0ec}, !- Handle
  Node 1,                                 !- Name
  {adf499f9-6dde-4251-80db-3a7c73ee27ef}, !- Inlet Port
  ;                                       !- Outlet Port

OS:Connection,
  {adf499f9-6dde-4251-80db-3a7c73ee27ef}, !- Handle
  {8b6244e8-a489-4ae2-bd49-fedc50640ae8}, !- Name
  {e8bba95e-d6b5-4b84-8ac5-133ee43a33ff}, !- Source Object
  11,                                     !- Outlet Port
  {f0aa444f-a10e-494e-a7b0-65c0f8fdb0ec}, !- Target Object
  2;                                      !- Inlet Port

OS:PortList,
  {070a0391-4f0c-441a-8480-0d14291fbac6}, !- Handle
  {b99dd538-3c14-4337-b85e-8422b1087b22}, !- Name
  {e8bba95e-d6b5-4b84-8ac5-133ee43a33ff}, !- HVAC Component
  {27dbcc9a-fd94-43cb-bb7a-bebd96928174}, !- Port 1
  {0edefaef-a504-4065-b29a-b17fae4f0ace}; !- Port 2

OS:PortList,
  {a696d8bb-f219-41ea-84f9-c670097591e4}, !- Handle
  {25d63f8e-fcef-4afc-8233-bd1008dad321}, !- Name
  {e8bba95e-d6b5-4b84-8ac5-133ee43a33ff}; !- HVAC Component

OS:PortList,
  {08783450-21bd-4628-92b2-c4077f5fcb6e}, !- Handle
  {f7c00ea4-a6c1-45fa-bb57-a1b8dcd9988a}, !- Name
  {e8bba95e-d6b5-4b84-8ac5-133ee43a33ff}, !- HVAC Component
  {610ff779-e6e7-4f90-b0eb-a9e77a817a2d}, !- Port 1
  {a594c1b9-b3ad-4439-bdda-644d5617a8f5}; !- Port 2

OS:Sizing:Zone,
  {128a3d54-46e8-45fb-b852-436451b87b51}, !- Handle
  {e8bba95e-d6b5-4b84-8ac5-133ee43a33ff}, !- Zone or ZoneList Name
  SupplyAirTemperature,                   !- Zone Cooling Design Supply Air Temperature Input Method
  14,                                     !- Zone Cooling Design Supply Air Temperature {C}
  11.11,                                  !- Zone Cooling Design Supply Air Temperature Difference {deltaC}
  SupplyAirTemperature,                   !- Zone Heating Design Supply Air Temperature Input Method
  40,                                     !- Zone Heating Design Supply Air Temperature {C}
  11.11,                                  !- Zone Heating Design Supply Air Temperature Difference {deltaC}
  0.0085,                                 !- Zone Cooling Design Supply Air Humidity Ratio {kg-H2O/kg-air}
  0.008,                                  !- Zone Heating Design Supply Air Humidity Ratio {kg-H2O/kg-air}
  ,                                       !- Zone Heating Sizing Factor
  ,                                       !- Zone Cooling Sizing Factor
  DesignDay,                              !- Cooling Design Air Flow Method
  ,                                       !- Cooling Design Air Flow Rate {m3/s}
  ,                                       !- Cooling Minimum Air Flow per Zone Floor Area {m3/s-m2}
  ,                                       !- Cooling Minimum Air Flow {m3/s}
  ,                                       !- Cooling Minimum Air Flow Fraction
  DesignDay,                              !- Heating Design Air Flow Method
  ,                                       !- Heating Design Air Flow Rate {m3/s}
  ,                                       !- Heating Maximum Air Flow per Zone Floor Area {m3/s-m2}
  ,                                       !- Heating Maximum Air Flow {m3/s}
  ,                                       !- Heating Maximum Air Flow Fraction
  ,                                       !- Design Zone Air Distribution Effectiveness in Cooling Mode
  ,                                       !- Design Zone Air Distribution Effectiveness in Heating Mode
  No,                                     !- Account for Dedicated Outdoor Air System
  NeutralSupplyAir,                       !- Dedicated Outdoor Air System Control Strategy
  autosize,                               !- Dedicated Outdoor Air Low Setpoint Temperature for Design {C}
  autosize;                               !- Dedicated Outdoor Air High Setpoint Temperature for Design {C}

OS:ZoneHVAC:EquipmentList,
  {61ab08f6-fb8b-4462-9eee-5f2470fbdf5e}, !- Handle
  Zone HVAC Equipment List 1,             !- Name
  {e8bba95e-d6b5-4b84-8ac5-133ee43a33ff}, !- Thermal Zone
  SequentialLoad,                         !- Load Distribution Scheme
  {d3a7e18d-de1e-4918-b18c-f58f91016dd2}, !- Zone Equipment 1
  1,                                      !- Zone Equipment Cooling Sequence 1
  1,                                      !- Zone Equipment Heating or No-Load Sequence 1
  ,                                       !- Zone Equipment Sequential Cooling Fraction Schedule Name 1
  ,                                       !- Zone Equipment Sequential Heating Fraction Schedule Name 1
  {93a2da68-d754-44b0-a534-453e9885f4a2}, !- Zone Equipment 2
  2,                                      !- Zone Equipment Cooling Sequence 2
  2,                                      !- Zone Equipment Heating or No-Load Sequence 2
  ,                                       !- Zone Equipment Sequential Cooling Fraction Schedule Name 2
  ;                                       !- Zone Equipment Sequential Heating Fraction Schedule Name 2

OS:ThermalZone,
  {db4840a4-142d-4046-9f29-a9b9c2006217}, !- Handle
  garage zone,                            !- Name
  ,                                       !- Multiplier
  ,                                       !- Ceiling Height {m}
  ,                                       !- Volume {m3}
  ,                                       !- Floor Area {m2}
  ,                                       !- Zone Inside Convection Algorithm
  ,                                       !- Zone Outside Convection Algorithm
  ,                                       !- Zone Conditioning Equipment List Name
  {2a643ccf-96f2-4745-bc96-364f3a77e75e}, !- Zone Air Inlet Port List
  {88bfcdeb-1a66-422a-8c36-4568e46de0c9}, !- Zone Air Exhaust Port List
  {155c48e8-f216-4d5e-ae02-6694bfee56d6}, !- Zone Air Node Name
  {9ae53fad-fd71-4c1a-b84e-3284630cf4bb}, !- Zone Return Air Port List
  ,                                       !- Primary Daylighting Control Name
  ,                                       !- Fraction of Zone Controlled by Primary Daylighting Control
  ,                                       !- Secondary Daylighting Control Name
  ,                                       !- Fraction of Zone Controlled by Secondary Daylighting Control
  ,                                       !- Illuminance Map Name
  ,                                       !- Group Rendering Name
  ,                                       !- Thermostat Name
  No;                                     !- Use Ideal Air Loads

OS:Node,
  {2e9a764f-f51e-4194-aa32-179dff05242f}, !- Handle
  Node 2,                                 !- Name
  {155c48e8-f216-4d5e-ae02-6694bfee56d6}, !- Inlet Port
  ;                                       !- Outlet Port

OS:Connection,
  {155c48e8-f216-4d5e-ae02-6694bfee56d6}, !- Handle
  {24c6894b-d520-461b-a77d-faacfea67c7f}, !- Name
  {db4840a4-142d-4046-9f29-a9b9c2006217}, !- Source Object
  11,                                     !- Outlet Port
  {2e9a764f-f51e-4194-aa32-179dff05242f}, !- Target Object
  2;                                      !- Inlet Port

OS:PortList,
  {2a643ccf-96f2-4745-bc96-364f3a77e75e}, !- Handle
  {9ebe2194-22e2-4807-bc13-eb569b60c78e}, !- Name
  {db4840a4-142d-4046-9f29-a9b9c2006217}; !- HVAC Component

OS:PortList,
  {88bfcdeb-1a66-422a-8c36-4568e46de0c9}, !- Handle
  {0788c02c-dc9d-4058-8505-3048e8fbb2ba}, !- Name
  {db4840a4-142d-4046-9f29-a9b9c2006217}; !- HVAC Component

OS:PortList,
  {9ae53fad-fd71-4c1a-b84e-3284630cf4bb}, !- Handle
  {816937ee-ec4e-45a6-b61c-a7edea32c4da}, !- Name
  {db4840a4-142d-4046-9f29-a9b9c2006217}; !- HVAC Component

OS:Sizing:Zone,
  {6bcb7d0c-b4aa-4651-9544-a22af046b615}, !- Handle
  {db4840a4-142d-4046-9f29-a9b9c2006217}, !- Zone or ZoneList Name
  SupplyAirTemperature,                   !- Zone Cooling Design Supply Air Temperature Input Method
  14,                                     !- Zone Cooling Design Supply Air Temperature {C}
  11.11,                                  !- Zone Cooling Design Supply Air Temperature Difference {deltaC}
  SupplyAirTemperature,                   !- Zone Heating Design Supply Air Temperature Input Method
  40,                                     !- Zone Heating Design Supply Air Temperature {C}
  11.11,                                  !- Zone Heating Design Supply Air Temperature Difference {deltaC}
  0.0085,                                 !- Zone Cooling Design Supply Air Humidity Ratio {kg-H2O/kg-air}
  0.008,                                  !- Zone Heating Design Supply Air Humidity Ratio {kg-H2O/kg-air}
  ,                                       !- Zone Heating Sizing Factor
  ,                                       !- Zone Cooling Sizing Factor
  DesignDay,                              !- Cooling Design Air Flow Method
  ,                                       !- Cooling Design Air Flow Rate {m3/s}
  ,                                       !- Cooling Minimum Air Flow per Zone Floor Area {m3/s-m2}
  ,                                       !- Cooling Minimum Air Flow {m3/s}
  ,                                       !- Cooling Minimum Air Flow Fraction
  DesignDay,                              !- Heating Design Air Flow Method
  ,                                       !- Heating Design Air Flow Rate {m3/s}
  ,                                       !- Heating Maximum Air Flow per Zone Floor Area {m3/s-m2}
  ,                                       !- Heating Maximum Air Flow {m3/s}
  ,                                       !- Heating Maximum Air Flow Fraction
  ,                                       !- Design Zone Air Distribution Effectiveness in Cooling Mode
  ,                                       !- Design Zone Air Distribution Effectiveness in Heating Mode
  No,                                     !- Account for Dedicated Outdoor Air System
  NeutralSupplyAir,                       !- Dedicated Outdoor Air System Control Strategy
  autosize,                               !- Dedicated Outdoor Air Low Setpoint Temperature for Design {C}
  autosize;                               !- Dedicated Outdoor Air High Setpoint Temperature for Design {C}

OS:ZoneHVAC:EquipmentList,
  {66c297f3-71d9-44e6-8ff5-be8ee84d7228}, !- Handle
  Zone HVAC Equipment List 2,             !- Name
  {db4840a4-142d-4046-9f29-a9b9c2006217}; !- Thermal Zone

OS:Space,
  {0437022b-86df-47fd-8d16-b9b438ca9d49}, !- Handle
  garage space,                           !- Name
  {58f2b970-9d22-4c56-aae0-fc9543b1b40e}, !- Space Type Name
  ,                                       !- Default Construction Set Name
  ,                                       !- Default Schedule Set Name
  -0,                                     !- Direction of Relative North {deg}
  0,                                      !- X Origin {m}
  0,                                      !- Y Origin {m}
  0,                                      !- Z Origin {m}
  ,                                       !- Building Story Name
  {db4840a4-142d-4046-9f29-a9b9c2006217}; !- Thermal Zone Name

OS:Surface,
  {3617214d-60cf-4617-bb03-c4c17c870de7}, !- Handle
  Surface 1,                              !- Name
  Floor,                                  !- Surface Type
  {d41c8c44-c0c2-44a8-bab2-bd0e574a49a4}, !- Construction Name
  {0437022b-86df-47fd-8d16-b9b438ca9d49}, !- Space Name
  Foundation,                             !- Outside Boundary Condition
  {61280e82-5a17-4139-9d8e-bb32e588eb68}, !- Outside Boundary Condition Object
  NoSun,                                  !- Sun Exposure
  NoWind,                                 !- Wind Exposure
  ,                                       !- View Factor to Ground
  ,                                       !- Number of Vertices
  7.6199999993904, -3.048, 0,             !- X,Y,Z Vertex 1 {m}
  7.6199999993904, 3.048, 0,              !- X,Y,Z Vertex 2 {m}
  11.2775999993904, 3.048, 0,             !- X,Y,Z Vertex 3 {m}
  11.2775999993904, -3.048, 0;            !- X,Y,Z Vertex 4 {m}

OS:Surface,
  {4aea31eb-72db-478d-a33e-4ac46e3930a6}, !- Handle
  Surface 2,                              !- Name
  Wall,                                   !- Surface Type
  {767a8191-cf8a-4551-b067-7575380386ed}, !- Construction Name
  {0437022b-86df-47fd-8d16-b9b438ca9d49}, !- Space Name
  Surface,                                !- Outside Boundary Condition
  {15e52a80-7078-44a7-a842-8a5c67591cbc}, !- Outside Boundary Condition Object
  NoSun,                                  !- Sun Exposure
  NoWind,                                 !- Wind Exposure
  ,                                       !- View Factor to Ground
  ,                                       !- Number of Vertices
  7.6199999993904, 3.048, 2.4384,         !- X,Y,Z Vertex 1 {m}
  7.6199999993904, 3.048, 0,              !- X,Y,Z Vertex 2 {m}
  7.6199999993904, 0, 0,                  !- X,Y,Z Vertex 3 {m}
  7.6199999993904, 0, 2.4384;             !- X,Y,Z Vertex 4 {m}

OS:Surface,
  {c94d6426-44f1-4153-8099-2ac4fa31ceb6}, !- Handle
  Surface 3,                              !- Name
  Wall,                                   !- Surface Type
  {767a8191-cf8a-4551-b067-7575380386ed}, !- Construction Name
  {0437022b-86df-47fd-8d16-b9b438ca9d49}, !- Space Name
  Surface,                                !- Outside Boundary Condition
  {edd8e77e-a873-462e-bfe7-da743070d331}, !- Outside Boundary Condition Object
  NoSun,                                  !- Sun Exposure
  NoWind,                                 !- Wind Exposure
  ,                                       !- View Factor to Ground
  ,                                       !- Number of Vertices
  11.2775999993904, 3.048, 2.4384,        !- X,Y,Z Vertex 1 {m}
  11.2775999993904, 3.048, 0,             !- X,Y,Z Vertex 2 {m}
  7.6199999993904, 3.048, 0,              !- X,Y,Z Vertex 3 {m}
  7.6199999993904, 3.048, 2.4384;         !- X,Y,Z Vertex 4 {m}

OS:Surface,
  {b2733236-76fb-4355-aefd-42f200d053e5}, !- Handle
  Surface 4,                              !- Name
  Wall,                                   !- Surface Type
  {f38da5fb-a292-42b6-b96d-ffd0f9dffd40}, !- Construction Name
  {0437022b-86df-47fd-8d16-b9b438ca9d49}, !- Space Name
  Outdoors,                               !- Outside Boundary Condition
  ,                                       !- Outside Boundary Condition Object
  SunExposed,                             !- Sun Exposure
  WindExposed,                            !- Wind Exposure
  ,                                       !- View Factor to Ground
  ,                                       !- Number of Vertices
  11.2775999993904, -3.048, 2.4384,       !- X,Y,Z Vertex 1 {m}
  11.2775999993904, -3.048, 0,            !- X,Y,Z Vertex 2 {m}