!- NOTE: Auto-generated from /test/osw_files/SFD_HVACSizing_Equip_ASHP1_Fixed.osw

OS:Version,
  {49c5576d-42e1-4f5f-a082-1ba60f07f588}, !- Handle
  2.9.0;                                  !- Version Identifier

OS:SimulationControl,
  {167e6819-3973-44cc-87e1-de44a14131fa}, !- Handle
  ,                                       !- Do Zone Sizing Calculation
  ,                                       !- Do System Sizing Calculation
  ,                                       !- Do Plant Sizing Calculation
  No;                                     !- Run Simulation for Sizing Periods

OS:Timestep,
  {34866019-4570-4045-a667-dc4c8d14816e}, !- Handle
  6;                                      !- Number of Timesteps per Hour

OS:ShadowCalculation,
  {6f3f4c10-7b1a-4a96-9682-56aec6b1c00a}, !- Handle
  20,                                     !- Calculation Frequency
  200;                                    !- Maximum Figures in Shadow Overlap Calculations

OS:SurfaceConvectionAlgorithm:Outside,
  {7b1ad7e4-d7a3-4486-9a59-e3db9f0f9c99}, !- Handle
  DOE-2;                                  !- Algorithm

OS:SurfaceConvectionAlgorithm:Inside,
  {bf95a416-53a9-4e06-8ea7-d356481ceac8}, !- Handle
  TARP;                                   !- Algorithm

OS:ZoneCapacitanceMultiplier:ResearchSpecial,
  {738f3e7a-72d7-466d-93f6-d3052b7c8d31}, !- Handle
  ,                                       !- Temperature Capacity Multiplier
  15,                                     !- Humidity Capacity Multiplier
  ;                                       !- Carbon Dioxide Capacity Multiplier

OS:RunPeriod,
  {417c83fb-b572-4e1f-b674-452ab630d86e}, !- Handle
  Run Period 1,                           !- Name
  1,                                      !- Begin Month
  1,                                      !- Begin Day of Month
  12,                                     !- End Month
  31,                                     !- End Day of Month
  ,                                       !- Use Weather File Holidays and Special Days
  ,                                       !- Use Weather File Daylight Saving Period
  ,                                       !- Apply Weekend Holiday Rule
  ,                                       !- Use Weather File Rain Indicators
  ,                                       !- Use Weather File Snow Indicators
  ;                                       !- Number of Times Runperiod to be Repeated

OS:YearDescription,
  {a7d03fbe-2973-4de7-b611-73d692d01bc6}, !- Handle
  2007,                                   !- Calendar Year
  ,                                       !- Day of Week for Start Day
  ;                                       !- Is Leap Year

OS:WeatherFile,
  {bd2266ea-f5bf-42cf-aa47-000ad2924754}, !- Handle
  Denver Intl Ap,                         !- City
  CO,                                     !- State Province Region
  USA,                                    !- Country
  TMY3,                                   !- Data Source
  725650,                                 !- WMO Number
  39.83,                                  !- Latitude {deg}
  -104.65,                                !- Longitude {deg}
  -7,                                     !- Time Zone {hr}
  1650,                                   !- Elevation {m}
  file:../weather/USA_CO_Denver.Intl.AP.725650_TMY3.epw, !- Url
  E23378AA;                               !- Checksum

OS:AdditionalProperties,
  {bc375a8f-0676-4ac1-b4b6-93a802a871f3}, !- Handle
  {bd2266ea-f5bf-42cf-aa47-000ad2924754}, !- Object Name
  EPWHeaderCity,                          !- Feature Name 1
  String,                                 !- Feature Data Type 1
  Denver Intl Ap,                         !- Feature Value 1
  EPWHeaderState,                         !- Feature Name 2
  String,                                 !- Feature Data Type 2
  CO,                                     !- Feature Value 2
  EPWHeaderCountry,                       !- Feature Name 3
  String,                                 !- Feature Data Type 3
  USA,                                    !- Feature Value 3
  EPWHeaderDataSource,                    !- Feature Name 4
  String,                                 !- Feature Data Type 4
  TMY3,                                   !- Feature Value 4
  EPWHeaderStation,                       !- Feature Name 5
  String,                                 !- Feature Data Type 5
  725650,                                 !- Feature Value 5
  EPWHeaderLatitude,                      !- Feature Name 6
  Double,                                 !- Feature Data Type 6
  39.829999999999998,                     !- Feature Value 6
  EPWHeaderLongitude,                     !- Feature Name 7
  Double,                                 !- Feature Data Type 7
  -104.65000000000001,                    !- Feature Value 7
  EPWHeaderTimezone,                      !- Feature Name 8
  Double,                                 !- Feature Data Type 8
  -7,                                     !- Feature Value 8
  EPWHeaderAltitude,                      !- Feature Name 9
  Double,                                 !- Feature Data Type 9
  5413.3858267716532,                     !- Feature Value 9
  EPWHeaderLocalPressure,                 !- Feature Name 10
  Double,                                 !- Feature Data Type 10
  0.81937567683596546,                    !- Feature Value 10
  EPWHeaderRecordsPerHour,                !- Feature Name 11
  Double,                                 !- Feature Data Type 11
  0,                                      !- Feature Value 11
  EPWDataAnnualAvgDrybulb,                !- Feature Name 12
  Double,                                 !- Feature Data Type 12
  51.575616438356228,                     !- Feature Value 12
  EPWDataAnnualMinDrybulb,                !- Feature Name 13
  Double,                                 !- Feature Data Type 13
  -2.9200000000000017,                    !- Feature Value 13
  EPWDataAnnualMaxDrybulb,                !- Feature Name 14
  Double,                                 !- Feature Data Type 14
  104,                                    !- Feature Value 14
  EPWDataCDD50F,                          !- Feature Name 15
  Double,                                 !- Feature Data Type 15
  3072.2925000000005,                     !- Feature Value 15
  EPWDataCDD65F,                          !- Feature Name 16
  Double,                                 !- Feature Data Type 16
  883.62000000000035,                     !- Feature Value 16
  EPWDataHDD50F,                          !- Feature Name 17
  Double,                                 !- Feature Data Type 17
  2497.1925000000001,                     !- Feature Value 17
  EPWDataHDD65F,                          !- Feature Name 18
  Double,                                 !- Feature Data Type 18
  5783.5200000000013,                     !- Feature Value 18
  EPWDataAnnualAvgWindspeed,              !- Feature Name 19
  Double,                                 !- Feature Data Type 19
  3.9165296803649667,                     !- Feature Value 19
  EPWDataMonthlyAvgDrybulbs,              !- Feature Name 20
  String,                                 !- Feature Data Type 20
  33.4191935483871&#4431.90142857142857&#4443.02620967741937&#4442.48624999999999&#4459.877741935483854&#4473.57574999999997&#4472.07975806451608&#4472.70008064516134&#4466.49200000000006&#4450.079112903225806&#4437.218250000000005&#4434.582177419354835, !- Feature Value 20
  EPWDataGroundMonthlyTemps,              !- Feature Name 21
  String,                                 !- Feature Data Type 21
  44.08306285945173&#4440.89570904991865&#4440.64045432632048&#4442.153016571250646&#4448.225111118704206&#4454.268919273837525&#4459.508577937551024&#4462.82777283423508&#4463.10975667174995&#4460.41014950381947&#4455.304105212311526&#4449.445696474514364, !- Feature Value 21
  EPWDataWSF,                             !- Feature Name 22
  Double,                                 !- Feature Data Type 22
  0.58999999999999997,                    !- Feature Value 22
  EPWDataMonthlyAvgDailyHighDrybulbs,     !- Feature Name 23
  String,                                 !- Feature Data Type 23
  47.41032258064516&#4446.58642857142857&#4455.15032258064517&#4453.708&#4472.80193548387098&#4488.67600000000002&#4486.1858064516129&#4485.87225806451613&#4482.082&#4463.18064516129033&#4448.73400000000001&#4448.87935483870968, !- Feature Value 23
  EPWDataMonthlyAvgDailyLowDrybulbs,      !- Feature Name 24
  String,                                 !- Feature Data Type 24
  19.347741935483874&#4419.856428571428573&#4430.316129032258065&#4431.112&#4447.41612903225806&#4457.901999999999994&#4459.063870967741934&#4460.956774193548384&#4452.352000000000004&#4438.41612903225806&#4427.002000000000002&#4423.02903225806451, !- Feature Value 24
  EPWDesignHeatingDrybulb,                !- Feature Name 25
  Double,                                 !- Feature Data Type 25
  12.02,                                  !- Feature Value 25
  EPWDesignHeatingWindspeed,              !- Feature Name 26
  Double,                                 !- Feature Data Type 26
  2.8062500000000004,                     !- Feature Value 26
  EPWDesignCoolingDrybulb,                !- Feature Name 27
  Double,                                 !- Feature Data Type 27
  91.939999999999998,                     !- Feature Value 27
  EPWDesignCoolingWetbulb,                !- Feature Name 28
  Double,                                 !- Feature Data Type 28
  59.95131430195849,                      !- Feature Value 28
  EPWDesignCoolingHumidityRatio,          !- Feature Name 29
  Double,                                 !- Feature Data Type 29
  0.0059161086834698092,                  !- Feature Value 29
  EPWDesignCoolingWindspeed,              !- Feature Name 30
  Double,                                 !- Feature Data Type 30
  3.7999999999999989,                     !- Feature Value 30
  EPWDesignDailyTemperatureRange,         !- Feature Name 31
  Double,                                 !- Feature Data Type 31
  24.915483870967748,                     !- Feature Value 31
  EPWDesignDehumidDrybulb,                !- Feature Name 32
  Double,                                 !- Feature Data Type 32
  67.996785714285721,                     !- Feature Value 32
  EPWDesignDehumidHumidityRatio,          !- Feature Name 33
  Double,                                 !- Feature Data Type 33
  0.012133744170488724,                   !- Feature Value 33
  EPWDesignCoolingDirectNormal,           !- Feature Name 34
  Double,                                 !- Feature Data Type 34
  985,                                    !- Feature Value 34
  EPWDesignCoolingDiffuseHorizontal,      !- Feature Name 35
  Double,                                 !- Feature Data Type 35
  84;                                     !- Feature Value 35

OS:Site,
  {8891311b-f7b6-4504-b48b-2ca813b75054}, !- Handle
  Denver Intl Ap_CO_USA,                  !- Name
  39.83,                                  !- Latitude {deg}
  -104.65,                                !- Longitude {deg}
  -7,                                     !- Time Zone {hr}
  1650,                                   !- Elevation {m}
  Suburbs;                                !- Terrain

OS:ClimateZones,
  {efabe5eb-a0e4-4b9f-8efe-2b257f33f8ce}, !- Handle
  ,                                       !- Active Institution
  ,                                       !- Active Year
  ,                                       !- Climate Zone Institution Name 1
  ,                                       !- Climate Zone Document Name 1
  ,                                       !- Climate Zone Document Year 1
  ,                                       !- Climate Zone Value 1
  Building America,                       !- Climate Zone Institution Name 2
  ,                                       !- Climate Zone Document Name 2
  0,                                      !- Climate Zone Document Year 2
  Cold;                                   !- Climate Zone Value 2

OS:Site:WaterMainsTemperature,
  {56124adb-de45-48ec-b6f3-a29fb545b39b}, !- Handle
  Correlation,                            !- Calculation Method
  ,                                       !- Temperature Schedule Name
  10.8753424657535,                       !- Annual Average Outdoor Air Temperature {C}
  23.1524007936508;                       !- Maximum Difference In Monthly Average Outdoor Air Temperatures {deltaC}

OS:RunPeriodControl:DaylightSavingTime,
  {faca772b-ed04-4543-b591-04fae6e632c6}, !- Handle
  3/12,                                   !- Start Date
  11/5;                                   !- End Date

OS:Site:GroundTemperature:Deep,
  {e6e61f8f-10b9-4d56-a1c8-05dd9c80e8c8}, !- Handle
  10.8753424657535,                       !- January Deep Ground Temperature {C}
  10.8753424657535,                       !- February Deep Ground Temperature {C}
  10.8753424657535,                       !- March Deep Ground Temperature {C}
  10.8753424657535,                       !- April Deep Ground Temperature {C}
  10.8753424657535,                       !- May Deep Ground Temperature {C}
  10.8753424657535,                       !- June Deep Ground Temperature {C}
  10.8753424657535,                       !- July Deep Ground Temperature {C}
  10.8753424657535,                       !- August Deep Ground Temperature {C}
  10.8753424657535,                       !- September Deep Ground Temperature {C}
  10.8753424657535,                       !- October Deep Ground Temperature {C}
  10.8753424657535,                       !- November Deep Ground Temperature {C}
  10.8753424657535;                       !- December Deep Ground Temperature {C}

OS:Building,
  {cd37ddca-d37d-4792-a543-41bea9a67986}, !- Handle
  Building 1,                             !- Name
  ,                                       !- Building Sector Type
  22.5,                                   !- North Axis {deg}
  ,                                       !- Nominal Floor to Floor Height {m}
  ,                                       !- Space Type Name
  ,                                       !- Default Construction Set Name
  ,                                       !- Default Schedule Set Name
  4,                                      !- Standards Number of Stories
  3,                                      !- Standards Number of Above Ground Stories
  ,                                       !- Standards Template
  singlefamilydetached,                   !- Standards Building Type
  1;                                      !- Standards Number of Living Units

OS:AdditionalProperties,
  {2fd2f026-d037-4eb9-9d29-e44c14be0281}, !- Handle
  {cd37ddca-d37d-4792-a543-41bea9a67986}, !- Object Name
  Total Units Modeled,                    !- Feature Name 1
  Integer,                                !- Feature Data Type 1
  1,                                      !- Feature Value 1
  has_water_heater_flue,                  !- Feature Name 2
  Boolean,                                !- Feature Data Type 2
  true;                                   !- Feature Value 2

OS:ThermalZone,
  {3dc73c3a-3e40-40b7-ad86-30ad039da888}, !- Handle
  living zone,                            !- Name
  ,                                       !- Multiplier
  ,                                       !- Ceiling Height {m}
  ,                                       !- Volume {m3}
  ,                                       !- Floor Area {m2}
  ,                                       !- Zone Inside Convection Algorithm
  ,                                       !- Zone Outside Convection Algorithm
  ,                                       !- Zone Conditioning Equipment List Name
  {becdd6ac-7e48-4e0e-9937-9f6004b4f02a}, !- Zone Air Inlet Port List
  {ac3932dd-20fc-42a8-a4bf-2357caa4fd77}, !- Zone Air Exhaust Port List
  {de28e3a2-b5ae-4227-b251-36fd39084b64}, !- Zone Air Node Name
  {6a1b2106-86e6-465d-be45-079a3ec893f1}, !- Zone Return Air Port List
  ,                                       !- Primary Daylighting Control Name
  ,                                       !- Fraction of Zone Controlled by Primary Daylighting Control
  ,                                       !- Secondary Daylighting Control Name
  ,                                       !- Fraction of Zone Controlled by Secondary Daylighting Control
  ,                                       !- Illuminance Map Name
  ,                                       !- Group Rendering Name
  {957baa7d-ede4-461a-a1bb-3c960b85764b}, !- Thermostat Name
  No;                                     !- Use Ideal Air Loads

OS:Node,
  {8b595150-0918-4464-9da6-6f79c30dc2fd}, !- Handle
  Node 1,                                 !- Name
  {de28e3a2-b5ae-4227-b251-36fd39084b64}, !- Inlet Port
  ;                                       !- Outlet Port

OS:Connection,
  {de28e3a2-b5ae-4227-b251-36fd39084b64}, !- Handle
  {25fc21e4-81f3-49ab-9a56-8cabcf07bea1}, !- Name
  {3dc73c3a-3e40-40b7-ad86-30ad039da888}, !- Source Object
  11,                                     !- Outlet Port
  {8b595150-0918-4464-9da6-6f79c30dc2fd}, !- Target Object
  2;                                      !- Inlet Port

OS:PortList,
  {becdd6ac-7e48-4e0e-9937-9f6004b4f02a}, !- Handle
  {5a552ec8-f019-40a2-99f9-4db9a235d672}, !- Name
  {3dc73c3a-3e40-40b7-ad86-30ad039da888}, !- HVAC Component
  {a16f3301-d2e1-4fd1-b89b-c36e8e97cbf7}, !- Port 1
  {14a11e01-bb96-4f5f-8d37-15d8564c0b6d}; !- Port 2

OS:PortList,
  {ac3932dd-20fc-42a8-a4bf-2357caa4fd77}, !- Handle
  {96a9e0b6-628d-46ab-a403-c35a950069ae}, !- Name
  {3dc73c3a-3e40-40b7-ad86-30ad039da888}; !- HVAC Component

OS:PortList,
  {6a1b2106-86e6-465d-be45-079a3ec893f1}, !- Handle
  {c3ea3eb1-75d1-4ee3-af85-3148b0d769a8}, !- Name
  {3dc73c3a-3e40-40b7-ad86-30ad039da888}, !- HVAC Component
  {fcf7348f-5fb5-4984-b888-1493e6c1309f}, !- Port 1
  {7cdfee3b-1e34-4c15-b7b1-a6f49c57da84}; !- Port 2

OS:Sizing:Zone,
  {66a48329-7764-4228-9526-caa1366437e3}, !- Handle
  {3dc73c3a-3e40-40b7-ad86-30ad039da888}, !- Zone or ZoneList Name
  SupplyAirTemperature,                   !- Zone Cooling Design Supply Air Temperature Input Method
  14,                                     !- Zone Cooling Design Supply Air Temperature {C}
  11.11,                                  !- Zone Cooling Design Supply Air Temperature Difference {deltaC}
  SupplyAirTemperature,                   !- Zone Heating Design Supply Air Temperature Input Method
  40,                                     !- Zone Heating Design Supply Air Temperature {C}
  11.11,                                  !- Zone Heating Design Supply Air Temperature Difference {deltaC}
  0.0085,                                 !- Zone Cooling Design Supply Air Humidity Ratio {kg-H2O/kg-air}
  0.008,                                  !- Zone Heating Design Supply Air Humidity Ratio {kg-H2O/kg-air}
  ,                                       !- Zone Heating Sizing Factor
  ,                                       !- Zone Cooling Sizing Factor
  DesignDay,                              !- Cooling Design Air Flow Method
  ,                                       !- Cooling Design Air Flow Rate {m3/s}
  ,                                       !- Cooling Minimum Air Flow per Zone Floor Area {m3/s-m2}
  ,                                       !- Cooling Minimum Air Flow {m3/s}
  ,                                       !- Cooling Minimum Air Flow Fraction
  DesignDay,                              !- Heating Design Air Flow Method
  ,                                       !- Heating Design Air Flow Rate {m3/s}
  ,                                       !- Heating Maximum Air Flow per Zone Floor Area {m3/s-m2}
  ,                                       !- Heating Maximum Air Flow {m3/s}
  ,                                       !- Heating Maximum Air Flow Fraction
  ,                                       !- Design Zone Air Distribution Effectiveness in Cooling Mode
  ,                                       !- Design Zone Air Distribution Effectiveness in Heating Mode
  No,                                     !- Account for Dedicated Outdoor Air System
  NeutralSupplyAir,                       !- Dedicated Outdoor Air System Control Strategy
  autosize,                               !- Dedicated Outdoor Air Low Setpoint Temperature for Design {C}
  autosize;                               !- Dedicated Outdoor Air High Setpoint Temperature for Design {C}

OS:ZoneHVAC:EquipmentList,
  {61959c04-0d39-4ca0-91f6-7f6697f0b24c}, !- Handle
  Zone HVAC Equipment List 1,             !- Name
  {3dc73c3a-3e40-40b7-ad86-30ad039da888}, !- Thermal Zone
  SequentialLoad,                         !- Load Distribution Scheme
  {6935c09f-b66c-45ea-b52d-a07ceddc5933}, !- Zone Equipment 1
  1,                                      !- Zone Equipment Cooling Sequence 1
  1,                                      !- Zone Equipment Heating or No-Load Sequence 1
  ,                                       !- Zone Equipment Sequential Cooling Fraction Schedule Name 1
  ,                                       !- Zone Equipment Sequential Heating Fraction Schedule Name 1
  {bde983cf-b25a-488e-85d1-a36bced98fbb}, !- Zone Equipment 2
  2,                                      !- Zone Equipment Cooling Sequence 2
  2,                                      !- Zone Equipment Heating or No-Load Sequence 2
  ,                                       !- Zone Equipment Sequential Cooling Fraction Schedule Name 2
  ;                                       !- Zone Equipment Sequential Heating Fraction Schedule Name 2

OS:ThermalZone,
  {8db83d21-67ef-4241-b77a-f0132b00aed1}, !- Handle
  garage zone,                            !- Name
  ,                                       !- Multiplier
  ,                                       !- Ceiling Height {m}
  ,                                       !- Volume {m3}
  ,                                       !- Floor Area {m2}
  ,                                       !- Zone Inside Convection Algorithm
  ,                                       !- Zone Outside Convection Algorithm
  ,                                       !- Zone Conditioning Equipment List Name
  {47dcf704-0cd8-4ecb-8851-4548d5e4a8c9}, !- Zone Air Inlet Port List
  {c5380bc3-4806-48fb-b6df-b994a4b26549}, !- Zone Air Exhaust Port List
  {ec4cb63a-93ee-4f0b-80a3-6880bca59a3b}, !- Zone Air Node Name
  {d7523cae-188d-49b1-ae96-c7e9808e5040}, !- Zone Return Air Port List
  ,                                       !- Primary Daylighting Control Name
  ,                                       !- Fraction of Zone Controlled by Primary Daylighting Control
  ,                                       !- Secondary Daylighting Control Name
  ,                                       !- Fraction of Zone Controlled by Secondary Daylighting Control
  ,                                       !- Illuminance Map Name
  ,                                       !- Group Rendering Name
  ,                                       !- Thermostat Name
  No;                                     !- Use Ideal Air Loads

OS:Node,
  {2b38f6a2-9699-437b-9841-2e26e1cfd5ad}, !- Handle
  Node 2,                                 !- Name
  {ec4cb63a-93ee-4f0b-80a3-6880bca59a3b}, !- Inlet Port
  ;                                       !- Outlet Port

OS:Connection,
  {ec4cb63a-93ee-4f0b-80a3-6880bca59a3b}, !- Handle
  {cca24f5f-6d13-4ac0-9d13-f9cfd35ffd9e}, !- Name
  {8db83d21-67ef-4241-b77a-f0132b00aed1}, !- Source Object
  11,                                     !- Outlet Port
  {2b38f6a2-9699-437b-9841-2e26e1cfd5ad}, !- Target Object
  2;                                      !- Inlet Port

OS:PortList,
  {47dcf704-0cd8-4ecb-8851-4548d5e4a8c9}, !- Handle
  {9c2c87ad-69fe-4a8a-82b3-a7fdac479196}, !- Name
  {8db83d21-67ef-4241-b77a-f0132b00aed1}; !- HVAC Component

OS:PortList,
  {c5380bc3-4806-48fb-b6df-b994a4b26549}, !- Handle
  {861c1ae0-b8e2-4a79-93d0-0ef7b075c43f}, !- Name
  {8db83d21-67ef-4241-b77a-f0132b00aed1}; !- HVAC Component

OS:PortList,
  {d7523cae-188d-49b1-ae96-c7e9808e5040}, !- Handle
  {3930e084-5cdc-4b69-91aa-d99e706e46af}, !- Name
  {8db83d21-67ef-4241-b77a-f0132b00aed1}; !- HVAC Component

OS:Sizing:Zone,
  {937da97f-da1f-437b-bdbe-43984094e340}, !- Handle
  {8db83d21-67ef-4241-b77a-f0132b00aed1}, !- Zone or ZoneList Name
  SupplyAirTemperature,                   !- Zone Cooling Design Supply Air Temperature Input Method
  14,                                     !- Zone Cooling Design Supply Air Temperature {C}
  11.11,                                  !- Zone Cooling Design Supply Air Temperature Difference {deltaC}
  SupplyAirTemperature,                   !- Zone Heating Design Supply Air Temperature Input Method
  40,                                     !- Zone Heating Design Supply Air Temperature {C}
  11.11,                                  !- Zone Heating Design Supply Air Temperature Difference {deltaC}
  0.0085,                                 !- Zone Cooling Design Supply Air Humidity Ratio {kg-H2O/kg-air}
  0.008,                                  !- Zone Heating Design Supply Air Humidity Ratio {kg-H2O/kg-air}
  ,                                       !- Zone Heating Sizing Factor
  ,                                       !- Zone Cooling Sizing Factor
  DesignDay,                              !- Cooling Design Air Flow Method
  ,                                       !- Cooling Design Air Flow Rate {m3/s}
  ,                                       !- Cooling Minimum Air Flow per Zone Floor Area {m3/s-m2}
  ,                                       !- Cooling Minimum Air Flow {m3/s}
  ,                                       !- Cooling Minimum Air Flow Fraction
  DesignDay,                              !- Heating Design Air Flow Method
  ,                                       !- Heating Design Air Flow Rate {m3/s}
  ,                                       !- Heating Maximum Air Flow per Zone Floor Area {m3/s-m2}
  ,                                       !- Heating Maximum Air Flow {m3/s}
  ,                                       !- Heating Maximum Air Flow Fraction
  ,                                       !- Design Zone Air Distribution Effectiveness in Cooling Mode
  ,                                       !- Design Zone Air Distribution Effectiveness in Heating Mode
  No,                                     !- Account for Dedicated Outdoor Air System
  NeutralSupplyAir,                       !- Dedicated Outdoor Air System Control Strategy
  autosize,                               !- Dedicated Outdoor Air Low Setpoint Temperature for Design {C}
  autosize;                               !- Dedicated Outdoor Air High Setpoint Temperature for Design {C}

OS:ZoneHVAC:EquipmentList,
  {7670d0e9-5380-41e7-a5bb-4050dddb0b14}, !- Handle
  Zone HVAC Equipment List 2,             !- Name
  {8db83d21-67ef-4241-b77a-f0132b00aed1}; !- Thermal Zone

OS:Space,
  {e7427ffd-334c-4554-b83d-d2bdf745fe46}, !- Handle
  garage space,                           !- Name
  {fb8f3c4c-372c-47b4-9131-c2512ce39630}, !- Space Type Name
  ,                                       !- Default Construction Set Name
  ,                                       !- Default Schedule Set Name
  -0,                                     !- Direction of Relative North {deg}
  0,                                      !- X Origin {m}
  0,                                      !- Y Origin {m}
  0,                                      !- Z Origin {m}
  ,                                       !- Building Story Name
  {8db83d21-67ef-4241-b77a-f0132b00aed1}; !- Thermal Zone Name

OS:Surface,
  {eadfc644-1da4-4dab-9fb1-7eda7e634295}, !- Handle
  Surface 1,                              !- Name
  Floor,                                  !- Surface Type
  {af01aca2-0177-4b47-b623-cb6ddc0b8018}, !- Construction Name
  {e7427ffd-334c-4554-b83d-d2bdf745fe46}, !- Space Name
  Foundation,                             !- Outside Boundary Condition
  {57fc7d83-d845-44ab-90dc-b4ac8b7ce51d}, !- Outside Boundary Condition Object
  NoSun,                                  !- Sun Exposure
  NoWind,                                 !- Wind Exposure
  ,                                       !- View Factor to Ground
  ,                                       !- Number of Vertices
  8.91701625975123, -3.048, 0,            !- X,Y,Z Vertex 1 {m}
  8.91701625975123, 3.048, 0,             !- X,Y,Z Vertex 2 {m}
  12.5746162597512, 3.048, 0,             !- X,Y,Z Vertex 3 {m}
  12.5746162597512, -3.048, 0;            !- X,Y,Z Vertex 4 {m}

OS:Surface,
  {f35d665c-9ac3-4e91-9a52-3addd4bea2bf}, !- Handle
  Surface 2,                              !- Name
  Wall,                                   !- Surface Type
  {acd4dfb0-0333-4afd-b68e-7d18b3c24e0c}, !- Construction Name
  {e7427ffd-334c-4554-b83d-d2bdf745fe46}, !- Space Name
  Surface,                                !- Outside Boundary Condition
  {8a86fd31-75e7-4a10-8c5a-4386ff556ca9}, !- Outside Boundary Condition Object
  NoSun,                                  !- Sun Exposure
  NoWind,                                 !- Wind Exposure
  ,                                       !- View Factor to Ground
  ,                                       !- Number of Vertices
  8.91701625975123, 3.048, 2.4384,        !- X,Y,Z Vertex 1 {m}
  8.91701625975123, 3.048, 0,             !- X,Y,Z Vertex 2 {m}
  8.91701625975123, 0, 0,                 !- X,Y,Z Vertex 3 {m}
  8.91701625975123, 0, 2.4384;            !- X,Y,Z Vertex 4 {m}

OS:Surface,
  {5f48eec7-8bd5-47f6-b476-4acfaff42f44}, !- Handle
  Surface 3,                              !- Name
  Wall,                                   !- Surface Type
  {acd4dfb0-0333-4afd-b68e-7d18b3c24e0c}, !- Construction Name
  {e7427ffd-334c-4554-b83d-d2bdf745fe46}, !- Space Name
  Surface,                                !- Outside Boundary Condition