!- NOTE: Auto-generated from /test/osw_files/SFD_2000sqft_2story_SL_FA_FlatRoof.osw

OS:Version,
  {70624fa6-1b4f-47e9-a7d2-f2ae5c19f4ce}, !- Handle
  2.8.1;                                  !- Version Identifier

OS:SimulationControl,
  {b87caefc-53f5-43b4-9d70-9ffd5476f904}, !- Handle
  ,                                       !- Do Zone Sizing Calculation
  ,                                       !- Do System Sizing Calculation
  ,                                       !- Do Plant Sizing Calculation
  No;                                     !- Run Simulation for Sizing Periods

OS:Timestep,
  {83c9ec99-0be0-4bee-bfdd-309588700763}, !- Handle
  6;                                      !- Number of Timesteps per Hour

OS:ShadowCalculation,
  {8b7905e8-51f4-460f-90a0-816312750b95}, !- Handle
  20,                                     !- Calculation Frequency
  200;                                    !- Maximum Figures in Shadow Overlap Calculations

OS:SurfaceConvectionAlgorithm:Outside,
  {fd092ed7-68ff-49c2-963d-c4fdb8a32769}, !- Handle
  DOE-2;                                  !- Algorithm

OS:SurfaceConvectionAlgorithm:Inside,
  {d305d18b-68d1-477a-89e9-d60f03d7dcc1}, !- Handle
  TARP;                                   !- Algorithm

OS:ZoneCapacitanceMultiplier:ResearchSpecial,
  {970bdfd8-7123-4d5e-9e85-808cb8cabc64}, !- Handle
  ,                                       !- Temperature Capacity Multiplier
  15,                                     !- Humidity Capacity Multiplier
  ;                                       !- Carbon Dioxide Capacity Multiplier

OS:RunPeriod,
  {910b5591-8eba-45ed-9694-2e0a8708ae0a}, !- Handle
  Run Period 1,                           !- Name
  1,                                      !- Begin Month
  1,                                      !- Begin Day of Month
  12,                                     !- End Month
  31,                                     !- End Day of Month
  ,                                       !- Use Weather File Holidays and Special Days
  ,                                       !- Use Weather File Daylight Saving Period
  ,                                       !- Apply Weekend Holiday Rule
  ,                                       !- Use Weather File Rain Indicators
  ,                                       !- Use Weather File Snow Indicators
  ;                                       !- Number of Times Runperiod to be Repeated

OS:YearDescription,
  {6f3d4137-16e3-481e-8b14-0da7fcecfb6c}, !- Handle
  2007,                                   !- Calendar Year
  ,                                       !- Day of Week for Start Day
  ;                                       !- Is Leap Year

OS:ThermalZone,
  {ab69396c-03f2-43f0-a352-8d96eb6ee169}, !- Handle
  living zone,                            !- Name
  ,                                       !- Multiplier
  ,                                       !- Ceiling Height {m}
  ,                                       !- Volume {m3}
  ,                                       !- Floor Area {m2}
  ,                                       !- Zone Inside Convection Algorithm
  ,                                       !- Zone Outside Convection Algorithm
  ,                                       !- Zone Conditioning Equipment List Name
  {efede18c-6594-4551-82ae-776c239bbd72}, !- Zone Air Inlet Port List
  {efbd507f-2de5-41f4-859f-c12ad9488086}, !- Zone Air Exhaust Port List
  {0e5f10ac-ece9-4fa6-96f7-7b9ae0b1b43c}, !- Zone Air Node Name
  {96744fc4-2e54-40aa-929f-91d06b983845}, !- Zone Return Air Port List
  ,                                       !- Primary Daylighting Control Name
  ,                                       !- Fraction of Zone Controlled by Primary Daylighting Control
  ,                                       !- Secondary Daylighting Control Name
  ,                                       !- Fraction of Zone Controlled by Secondary Daylighting Control
  ,                                       !- Illuminance Map Name
  ,                                       !- Group Rendering Name
  ,                                       !- Thermostat Name
  No;                                     !- Use Ideal Air Loads

OS:Node,
  {01ce2ed0-dc00-4a5b-ab19-380027b2942a}, !- Handle
  Node 1,                                 !- Name
  {0e5f10ac-ece9-4fa6-96f7-7b9ae0b1b43c}, !- Inlet Port
  ;                                       !- Outlet Port

OS:Connection,
  {0e5f10ac-ece9-4fa6-96f7-7b9ae0b1b43c}, !- Handle
  {75ca1ea0-f9d1-499e-9acf-e5dfba5fdeff}, !- Name
  {ab69396c-03f2-43f0-a352-8d96eb6ee169}, !- Source Object
  11,                                     !- Outlet Port
  {01ce2ed0-dc00-4a5b-ab19-380027b2942a}, !- Target Object
  2;                                      !- Inlet Port

OS:PortList,
  {efede18c-6594-4551-82ae-776c239bbd72}, !- Handle
  {5870a78a-a4bb-4aca-8bbe-3b4cdc315dfb}, !- Name
  {ab69396c-03f2-43f0-a352-8d96eb6ee169}; !- HVAC Component

OS:PortList,
  {efbd507f-2de5-41f4-859f-c12ad9488086}, !- Handle
  {3ddedd93-7d0f-44a2-b0fe-aa0355aff183}, !- Name
  {ab69396c-03f2-43f0-a352-8d96eb6ee169}; !- HVAC Component

OS:PortList,
  {96744fc4-2e54-40aa-929f-91d06b983845}, !- Handle
  {76a6fb03-2bf8-4040-b380-f100a3579619}, !- Name
  {ab69396c-03f2-43f0-a352-8d96eb6ee169}; !- HVAC Component

OS:Sizing:Zone,
  {e20973ed-24f3-4db1-9b12-8da24a40e4ee}, !- Handle
  {ab69396c-03f2-43f0-a352-8d96eb6ee169}, !- Zone or ZoneList Name
  SupplyAirTemperature,                   !- Zone Cooling Design Supply Air Temperature Input Method
  14,                                     !- Zone Cooling Design Supply Air Temperature {C}
  11.11,                                  !- Zone Cooling Design Supply Air Temperature Difference {deltaC}
  SupplyAirTemperature,                   !- Zone Heating Design Supply Air Temperature Input Method
  40,                                     !- Zone Heating Design Supply Air Temperature {C}
  11.11,                                  !- Zone Heating Design Supply Air Temperature Difference {deltaC}
  0.0085,                                 !- Zone Cooling Design Supply Air Humidity Ratio {kg-H2O/kg-air}
  0.008,                                  !- Zone Heating Design Supply Air Humidity Ratio {kg-H2O/kg-air}
  ,                                       !- Zone Heating Sizing Factor
  ,                                       !- Zone Cooling Sizing Factor
  DesignDay,                              !- Cooling Design Air Flow Method
  ,                                       !- Cooling Design Air Flow Rate {m3/s}
  ,                                       !- Cooling Minimum Air Flow per Zone Floor Area {m3/s-m2}
  ,                                       !- Cooling Minimum Air Flow {m3/s}
  ,                                       !- Cooling Minimum Air Flow Fraction
  DesignDay,                              !- Heating Design Air Flow Method
  ,                                       !- Heating Design Air Flow Rate {m3/s}
  ,                                       !- Heating Maximum Air Flow per Zone Floor Area {m3/s-m2}
  ,                                       !- Heating Maximum Air Flow {m3/s}
  ,                                       !- Heating Maximum Air Flow Fraction
  ,                                       !- Design Zone Air Distribution Effectiveness in Cooling Mode
  ,                                       !- Design Zone Air Distribution Effectiveness in Heating Mode
  No,                                     !- Account for Dedicated Outdoor Air System
  NeutralSupplyAir,                       !- Dedicated Outdoor Air System Control Strategy
  autosize,                               !- Dedicated Outdoor Air Low Setpoint Temperature for Design {C}
  autosize;                               !- Dedicated Outdoor Air High Setpoint Temperature for Design {C}

OS:ZoneHVAC:EquipmentList,
  {75662256-bedf-4d6c-aac9-60bf94e89964}, !- Handle
  Zone HVAC Equipment List 1,             !- Name
  {ab69396c-03f2-43f0-a352-8d96eb6ee169}; !- Thermal Zone

OS:Space,
  {f14f11d9-35cf-4cd0-8226-30c66923083f}, !- Handle
  living space,                           !- Name
  {35755deb-9e23-4204-a0d6-4e7fda3fbfdd}, !- Space Type Name
  ,                                       !- Default Construction Set Name
  ,                                       !- Default Schedule Set Name
  -0,                                     !- Direction of Relative North {deg}
  0,                                      !- X Origin {m}
  0,                                      !- Y Origin {m}
  0,                                      !- Z Origin {m}
  ,                                       !- Building Story Name
  {ab69396c-03f2-43f0-a352-8d96eb6ee169}, !- Thermal Zone Name
  ,                                       !- Part of Total Floor Area
  ,                                       !- Design Specification Outdoor Air Object Name
  {6e6b7d74-5f95-4330-a6f9-6b2669d3c4d4}; !- Building Unit Name

OS:Surface,
  {e82dcb85-550a-4c92-b7c4-90e3cef06468}, !- Handle
  Surface 1,                              !- Name
  Floor,                                  !- Surface Type
  ,                                       !- Construction Name
  {f14f11d9-35cf-4cd0-8226-30c66923083f}, !- Space Name
  Foundation,                             !- Outside Boundary Condition
  ,                                       !- Outside Boundary Condition Object
  NoSun,                                  !- Sun Exposure
  NoWind,                                 !- Wind Exposure
  ,                                       !- View Factor to Ground
  ,                                       !- Number of Vertices
  0, 0, 0,                                !- X,Y,Z Vertex 1 {m}
  0, 5.56486118425249, 0,                 !- X,Y,Z Vertex 2 {m}
  11.129722368505, 5.56486118425249, 0,   !- X,Y,Z Vertex 3 {m}
  11.129722368505, 0, 0;                  !- X,Y,Z Vertex 4 {m}

OS:Surface,
  {18f33a9b-f846-4bf2-9c90-e21cc7ed7b0c}, !- Handle
  Surface 2,                              !- Name
  Wall,                                   !- Surface Type
  ,                                       !- Construction Name
  {f14f11d9-35cf-4cd0-8226-30c66923083f}, !- Space Name
  Outdoors,                               !- Outside Boundary Condition
  ,                                       !- Outside Boundary Condition Object
  SunExposed,                             !- Sun Exposure
  WindExposed,                            !- Wind Exposure
  ,                                       !- View Factor to Ground
  ,                                       !- Number of Vertices
  0, 5.56486118425249, 2.4384,            !- X,Y,Z Vertex 1 {m}
  0, 5.56486118425249, 0,                 !- X,Y,Z Vertex 2 {m}
  0, 0, 0,                                !- X,Y,Z Vertex 3 {m}
  0, 0, 2.4384;                           !- X,Y,Z Vertex 4 {m}

OS:Surface,
  {de6e849c-df64-4e1f-95fc-997015dbae44}, !- Handle
  Surface 3,                              !- Name
  Wall,                                   !- Surface Type
  ,                                       !- Construction Name
  {f14f11d9-35cf-4cd0-8226-30c66923083f}, !- Space Name
  Outdoors,                               !- Outside Boundary Condition
  ,                                       !- Outside Boundary Condition Object
  SunExposed,                             !- Sun Exposure
  WindExposed,                            !- Wind Exposure
  ,                                       !- View Factor to Ground
  ,                                       !- Number of Vertices
  11.129722368505, 5.56486118425249, 2.4384, !- X,Y,Z Vertex 1 {m}
  11.129722368505, 5.56486118425249, 0,   !- X,Y,Z Vertex 2 {m}
  0, 5.56486118425249, 0,                 !- X,Y,Z Vertex 3 {m}
  0, 5.56486118425249, 2.4384;            !- X,Y,Z Vertex 4 {m}

OS:Surface,
  {549df21c-65c3-45ac-b828-26f9825eaef3}, !- Handle
  Surface 4,                              !- Name
  Wall,                                   !- Surface Type
  ,                                       !- Construction Name
  {f14f11d9-35cf-4cd0-8226-30c66923083f}, !- Space Name
  Outdoors,                               !- Outside Boundary Condition
  ,                                       !- Outside Boundary Condition Object
  SunExposed,                             !- Sun Exposure
  WindExposed,                            !- Wind Exposure
  ,                                       !- View Factor to Ground
  ,                                       !- Number of Vertices
  11.129722368505, 0, 2.4384,             !- X,Y,Z Vertex 1 {m}
  11.129722368505, 0, 0,                  !- X,Y,Z Vertex 2 {m}
  11.129722368505, 5.56486118425249, 0,   !- X,Y,Z Vertex 3 {m}
  11.129722368505, 5.56486118425249, 2.4384; !- X,Y,Z Vertex 4 {m}

OS:Surface,
  {1b94da4f-558a-44d8-99bb-363d2c2173e3}, !- Handle
  Surface 5,                              !- Name
  Wall,                                   !- Surface Type
  ,                                       !- Construction Name
  {f14f11d9-35cf-4cd0-8226-30c66923083f}, !- Space Name
  Outdoors,                               !- Outside Boundary Condition
  ,                                       !- Outside Boundary Condition Object
  SunExposed,                             !- Sun Exposure
  WindExposed,                            !- Wind Exposure
  ,                                       !- View Factor to Ground
  ,                                       !- Number of Vertices
  0, 0, 2.4384,                           !- X,Y,Z Vertex 1 {m}
  0, 0, 0,                                !- X,Y,Z Vertex 2 {m}
  11.129722368505, 0, 0,                  !- X,Y,Z Vertex 3 {m}
  11.129722368505, 0, 2.4384;             !- X,Y,Z Vertex 4 {m}

OS:Surface,
  {8893da4b-231a-4a29-b2ad-434631f16d3d}, !- Handle
  Surface 6,                              !- Name
  RoofCeiling,                            !- Surface Type
  ,                                       !- Construction Name
  {f14f11d9-35cf-4cd0-8226-30c66923083f}, !- Space Name
  Surface,                                !- Outside Boundary Condition
  {ce6bd845-4093-4177-8380-dfd0b244c4f9}, !- Outside Boundary Condition Object
  NoSun,                                  !- Sun Exposure
  NoWind,                                 !- Wind Exposure
  ,                                       !- View Factor to Ground
  ,                                       !- Number of Vertices
  11.129722368505, 0, 2.4384,             !- X,Y,Z Vertex 1 {m}
  11.129722368505, 5.56486118425249, 2.4384, !- X,Y,Z Vertex 2 {m}
  0, 5.56486118425249, 2.4384,            !- X,Y,Z Vertex 3 {m}
  0, 0, 2.4384;                           !- X,Y,Z Vertex 4 {m}

OS:SpaceType,
  {35755deb-9e23-4204-a0d6-4e7fda3fbfdd}, !- Handle
  Space Type 1,                           !- Name
  ,                                       !- Default Construction Set Name
  ,                                       !- Default Schedule Set Name
  ,                                       !- Group Rendering Name
  ,                                       !- Design Specification Outdoor Air Object Name
  ,                                       !- Standards Template
  ,                                       !- Standards Building Type
  living;                                 !- Standards Space Type

OS:Space,
  {d8107c40-eba2-4ec9-b642-1c36db64108d}, !- Handle
  living space|story 2,                   !- Name
  {35755deb-9e23-4204-a0d6-4e7fda3fbfdd}, !- Space Type Name
  ,                                       !- Default Construction Set Name
  ,                                       !- Default Schedule Set Name
  -0,                                     !- Direction of Relative North {deg}
  0,                                      !- X Origin {m}
  0,                                      !- Y Origin {m}
  2.4384,                                 !- Z Origin {m}
  ,                                       !- Building Story Name
  {ab69396c-03f2-43f0-a352-8d96eb6ee169}, !- Thermal Zone Name
  ,                                       !- Part of Total Floor Area
  ,                                       !- Design Specification Outdoor Air Object Name
  {6e6b7d74-5f95-4330-a6f9-6b2669d3c4d4}; !- Building Unit Name

OS:Surface,
  {ce6bd845-4093-4177-8380-dfd0b244c4f9}, !- Handle
  Surface 7,                              !- Name
  Floor,                                  !- Surface Type
  ,                                       !- Construction Name
  {d8107c40-eba2-4ec9-b642-1c36db64108d}, !- Space Name
  Surface,                                !- Outside Boundary Condition
  {8893da4b-231a-4a29-b2ad-434631f16d3d}, !- Outside Boundary Condition Object
  NoSun,                                  !- Sun Exposure
  NoWind,                                 !- Wind Exposure
  ,                                       !- View Factor to Ground
  ,                                       !- Number of Vertices
  0, 0, 0,                                !- X,Y,Z Vertex 1 {m}
  0, 5.56486118425249, 0,                 !- X,Y,Z Vertex 2 {m}
  11.129722368505, 5.56486118425249, 0,   !- X,Y,Z Vertex 3 {m}
  11.129722368505, 0, 0;                  !- X,Y,Z Vertex 4 {m}

OS:Surface,
  {13939f7f-e132-465c-816b-4ba0c21a4c22}, !- Handle
  Surface 8,                              !- Name
  Wall,                                   !- Surface Type
  ,                                       !- Construction Name
  {d8107c40-eba2-4ec9-b642-1c36db64108d}, !- Space Name
  Outdoors,                               !- Outside Boundary Condition
  ,                                       !- Outside Boundary Condition Object
  SunExposed,                             !- Sun Exposure
  WindExposed,                            !- Wind Exposure
  ,                                       !- View Factor to Ground
  ,                                       !- Number of Vertices
  0, 5.56486118425249, 2.4384,            !- X,Y,Z Vertex 1 {m}
  0, 5.56486118425249, 0,                 !- X,Y,Z Vertex 2 {m}
  0, 0, 0,                                !- X,Y,Z Vertex 3 {m}
  0, 0, 2.4384;                           !- X,Y,Z Vertex 4 {m}

OS:Surface,
  {34472ca1-9f8a-4350-a7c6-7bd79839ad73}, !- Handle
  Surface 9,                              !- Name
  Wall,                                   !- Surface Type
  ,                                       !- Construction Name
  {d8107c40-eba2-4ec9-b642-1c36db64108d}, !- Space Name
  Outdoors,                               !- Outside Boundary Condition
  ,                                       !- Outside Boundary Condition Object
  SunExposed,                             !- Sun Exposure
  WindExposed,                            !- Wind Exposure
  ,                                       !- View Factor to Ground
  ,                                       !- Number of Vertices
  11.129722368505, 5.56486118425249, 2.4384, !- X,Y,Z Vertex 1 {m}
  11.129722368505, 5.56486118425249, 0,   !- X,Y,Z Vertex 2 {m}
  0, 5.56486118425249, 0,                 !- X,Y,Z Vertex 3 {m}
  0, 5.56486118425249, 2.4384;            !- X,Y,Z Vertex 4 {m}

OS:Surface,
  {b26270b0-4fa1-4e72-97c4-ed4074c66683}, !- Handle
  Surface 10,                             !- Name
  Wall,                                   !- Surface Type
  ,                                       !- Construction Name
  {d8107c40-eba2-4ec9-b642-1c36db64108d}, !- Space Name
  Outdoors,                               !- Outside Boundary Condition
  ,                                       !- Outside Boundary Condition Object
  SunExposed,                             !- Sun Exposure
  WindExposed,                            !- Wind Exposure
  ,                                       !- View Factor to Ground
  ,                                       !- Number of Vertices
  11.129722368505, 0, 2.4384,             !- X,Y,Z Vertex 1 {m}
  11.129722368505, 0, 0,                  !- X,Y,Z Vertex 2 {m}
  11.129722368505, 5.56486118425249, 0,   !- X,Y,Z Vertex 3 {m}
  11.129722368505, 5.56486118425249, 2.4384; !- X,Y,Z Vertex 4 {m}

OS:Surface,
  {2a37d7a4-f69f-4831-b519-2511430ee3d5}, !- Handle
  Surface 11,                             !- Name
  Wall,                                   !- Surface Type
  ,                                       !- Construction Name
  {d8107c40-eba2-4ec9-b642-1c36db64108d}, !- Space Name
  Outdoors,                               !- Outside Boundary Condition
  ,                                       !- Outside Boundary Condition Object
  SunExposed,                             !- Sun Exposure
  WindExposed,                            !- Wind Exposure
  ,                                       !- View Factor to Ground
  ,                                       !- Number of Vertices
  0, 0, 2.4384,                           !- X,Y,Z Vertex 1 {m}
  0, 0, 0,                                !- X,Y,Z Vertex 2 {m}
  11.129722368505, 0, 0,                  !- X,Y,Z Vertex 3 {m}
  11.129722368505, 0, 2.4384;             !- X,Y,Z Vertex 4 {m}

OS:Surface,
  {8b468c84-3adb-442a-9048-56cca511d18a}, !- Handle
  Surface 12,                             !- Name
  RoofCeiling,                            !- Surface Type
  ,                                       !- Construction Name
  {d8107c40-eba2-4ec9-b642-1c36db64108d}, !- Space Name
  Outdoors,                               !- Outside Boundary Condition
  ,                                       !- Outside Boundary Condition Object
  SunExposed,                             !- Sun Exposure
  WindExposed,                            !- Wind Exposure
  ,                                       !- View Factor to Ground
  ,                                       !- Number of Vertices
  11.129722368505, 0, 2.4384,             !- X,Y,Z Vertex 1 {m}
  11.129722368505, 5.56486118425249, 2.4384, !- X,Y,Z Vertex 2 {m}
  0, 5.56486118425249, 2.4384,            !- X,Y,Z Vertex 3 {m}
  0, 0, 2.4384;                           !- X,Y,Z Vertex 4 {m}

OS:BuildingUnit,
  {6e6b7d74-5f95-4330-a6f9-6b2669d3c4d4}, !- Handle
  unit 1,                                 !- Name
  ,                                       !- Rendering Color
  Residential;                            !- Building Unit Type

OS:Building,
  {171f3569-54a2-4932-8b5d-d55a57070850}, !- Handle
  Building 1,                             !- Name
  ,                                       !- Building Sector Type
  0,                                      !- North Axis {deg}
  ,                                       !- Nominal Floor to Floor Height {m}
  ,                                       !- Space Type Name
  ,                                       !- Default Construction Set Name
  ,                                       !- Default Schedule Set Name
  3,                                      !- Standards Number of Stories
  3,                                      !- Standards Number of Above Ground Stories
  ,                                       !- Standards Template
  singlefamilydetached,                   !- Standards Building Type
  1;                                      !- Standards Number of Living Units

OS:AdditionalProperties,
  {a49b8719-878c-4460-a8b7-c441267a388d}, !- Handle
  {171f3569-54a2-4932-8b5d-d55a57070850}, !- Object Name
  Total Units Represented,                !- Feature Name 1
  Integer,                                !- Feature Data Type 1
  1,                                      !- Feature Value 1
  Total Units Modeled,                    !- Feature Name 2
  Integer,                                !- Feature Data Type 2
  1;                                      !- Feature Value 2

OS:AdditionalProperties,
  {e6c53460-3aeb-426f-8101-2892a731b652}, !- Handle
  {6e6b7d74-5f95-4330-a6f9-6b2669d3c4d4}, !- Object Name
  NumberOfBedrooms,                       !- Feature Name 1
  Integer,                                !- Feature Data Type 1
  3,                                      !- Feature Value 1
  NumberOfBathrooms,                      !- Feature Name 2
  Double,                                 !- Feature Data Type 2
  2;                                      !- Feature Value 2

OS:Schedule:Day,
  {a9307e1c-d349-40fc-bd0c-4445343ca357}, !- Handle
  Schedule Day 1,                         !- Name
  ,                                       !- Schedule Type Limits Name
  ,                                       !- Interpolate to Timestep
  24,                                     !- Hour 1
  0,                                      !- Minute 1
  0;                                      !- Value Until Time 1

OS:Schedule:Day,
  {46f164be-7804-4419-9f24-2f9e6e44bb72}, !- Handle
  Schedule Day 2,                         !- Name
  ,                                       !- Schedule Type Limits Name
  ,                                       !- Interpolate to Timestep
  24,                                     !- Hour 1
  0,                                      !- Minute 1
  1;                                      !- Value Until Time 1

OS:ShadingSurfaceGroup,
  {7c1ebd8a-5dc8-4c5c-9f9d-d44859645867}, !- Handle
  res eaves,                              !- Name
  Building;                               !- Shading Surface Type

OS:ShadingSurface,
  {ce014c71-a0dd-4e8c-a0c3-d4e1104baae7}, !- Handle
  Surface 12 - res eaves,                 !- Name
  ,                                       !- Construction Name
  {7c1ebd8a-5dc8-4c5c-9f9d-d44859645867}, !- Shading Surface Group Name
  ,                                       !- Transmittance Schedule Name
  ,                                       !- Number of Vertices
  0, -0.6096, 4.8768,                     !- X,Y,Z Vertex 1 {m}
  11.129722368505, -0.6096, 4.8768,       !- X,Y,Z Vertex 2 {m}
  11.129722368505, 0, 4.8768,             !- X,Y,Z Vertex 3 {m}
  0, 0, 4.8768;                           !- X,Y,Z Vertex 4 {m}

OS:ShadingSurface,
  {104e6eaf-5341-4473-9a65-97e30a301b8c}, !- Handle
  Surface 12 - res eaves 1,               !- Name
  ,                                       !- Construction Name
  {7c1ebd8a-5dc8-4c5c-9f9d-d44859645867}, !- Shading Surface Group Name
  ,                                       !- Transmittance Schedule Name
  ,                                       !- Number of Vertices
  11.739322368505, 0, 4.8768,             !- X,Y,Z Vertex 1 {m}
  11.739322368505, 5.56486118425249, 4.8768, !- X,Y,Z Vertex 2 {m}
  11.129722368505, 5.56486118425249, 4.8768, !- X,Y,Z Vertex 3 {m}
  11.129722368505, 0, 4.8768;             !- X,Y,Z Vertex 4 {m}

OS:ShadingSurface,
  {5857667e-ff3b-41aa-bb7b-6a9c34cde3d6}, !- Handle
  Surface 12 - res eaves 2,               !- Name
  ,                                       !- Construction Name
  {7c1ebd8a-5dc8-4c5c-9f9d-d44859645867}, !- Shading Surface Group Name
  ,                                       !- Transmittance Schedule Name
  ,                                       !- Number of Vertices
  11.129722368505, 6.17446118425249, 4.8768, !- X,Y,Z Vertex 1 {m}
  0, 6.17446118425249, 4.8768,            !- X,Y,Z Vertex 2 {m}
  0, 5.56486118425249, 4.8768,            !- X,Y,Z Vertex 3 {m}
  11.129722368505, 5.56486118425249, 4.8768; !- X,Y,Z Vertex 4 {m}

OS:ShadingSurface,
  {232a31bf-fe6b-435a-9d34-c6ed0ff9f9eb}, !- Handle
  Surface 12 - res eaves 3,               !- Name
  ,                                       !- Construction Name
  {7c1ebd8a-5dc8-4c5c-9f9d-d44859645867}, !- Shading Surface Group Name
  ,                                       !- Transmittance Schedule Name
  ,                                       !- Number of Vertices
  -0.6096, 5.56486118425249, 4.8768,      !- X,Y,Z Vertex 1 {m}
  -0.6096, 0, 4.8768,                     !- X,Y,Z Vertex 2 {m}
  0, 0, 4.8768,                           !- X,Y,Z Vertex 3 {m}
  0, 5.56486118425249, 4.8768;            !- X,Y,Z Vertex 4 {m}

