!- NOTE: Auto-generated from /test/osw_files/SFD_HVACSizing_Load_2story_FB_GRG_FA_ASHP_DuctsInFB.osw

OS:Version,
  {fbea4577-0c53-476d-9a07-16735ede7b92}, !- Handle
  2.9.0;                                  !- Version Identifier

OS:SimulationControl,
  {cb61a54b-5219-406a-af31-c93017beb423}, !- Handle
  ,                                       !- Do Zone Sizing Calculation
  ,                                       !- Do System Sizing Calculation
  ,                                       !- Do Plant Sizing Calculation
  No;                                     !- Run Simulation for Sizing Periods

OS:Timestep,
  {52bc227e-7507-420b-af34-e4d3a920bbde}, !- Handle
  6;                                      !- Number of Timesteps per Hour

OS:ShadowCalculation,
  {ef7e0e18-74d4-4e65-b775-587455019d36}, !- Handle
  20,                                     !- Calculation Frequency
  200;                                    !- Maximum Figures in Shadow Overlap Calculations

OS:SurfaceConvectionAlgorithm:Outside,
  {1dc07369-7eb1-45c2-8cfa-1d9edcecbad4}, !- Handle
  DOE-2;                                  !- Algorithm

OS:SurfaceConvectionAlgorithm:Inside,
  {be4f2582-0877-4ca0-87bb-5e369715bd0f}, !- Handle
  TARP;                                   !- Algorithm

OS:ZoneCapacitanceMultiplier:ResearchSpecial,
  {0caa814f-35c2-4892-9ac5-a5b4f6f4b777}, !- Handle
  ,                                       !- Temperature Capacity Multiplier
  15,                                     !- Humidity Capacity Multiplier
  ;                                       !- Carbon Dioxide Capacity Multiplier

OS:RunPeriod,
  {b98245d4-a0f0-4654-a7eb-9b88618db023}, !- Handle
  Run Period 1,                           !- Name
  1,                                      !- Begin Month
  1,                                      !- Begin Day of Month
  12,                                     !- End Month
  31,                                     !- End Day of Month
  ,                                       !- Use Weather File Holidays and Special Days
  ,                                       !- Use Weather File Daylight Saving Period
  ,                                       !- Apply Weekend Holiday Rule
  ,                                       !- Use Weather File Rain Indicators
  ,                                       !- Use Weather File Snow Indicators
  ;                                       !- Number of Times Runperiod to be Repeated

OS:YearDescription,
  {2c6f94e7-5da5-412c-89ad-dae6ebbc2b32}, !- Handle
  2007,                                   !- Calendar Year
  ,                                       !- Day of Week for Start Day
  ;                                       !- Is Leap Year

OS:WeatherFile,
  {0601c84a-daa7-4e0a-9b3a-05a740a1a26d}, !- Handle
  Denver Intl Ap,                         !- City
  CO,                                     !- State Province Region
  USA,                                    !- Country
  TMY3,                                   !- Data Source
  725650,                                 !- WMO Number
  39.83,                                  !- Latitude {deg}
  -104.65,                                !- Longitude {deg}
  -7,                                     !- Time Zone {hr}
  1650,                                   !- Elevation {m}
  file:../weather/USA_CO_Denver.Intl.AP.725650_TMY3.epw, !- Url
  E23378AA;                               !- Checksum

OS:AdditionalProperties,
  {9bf78836-d493-475a-9da1-491b45a660d8}, !- Handle
  {0601c84a-daa7-4e0a-9b3a-05a740a1a26d}, !- Object Name
  EPWHeaderCity,                          !- Feature Name 1
  String,                                 !- Feature Data Type 1
  Denver Intl Ap,                         !- Feature Value 1
  EPWHeaderState,                         !- Feature Name 2
  String,                                 !- Feature Data Type 2
  CO,                                     !- Feature Value 2
  EPWHeaderCountry,                       !- Feature Name 3
  String,                                 !- Feature Data Type 3
  USA,                                    !- Feature Value 3
  EPWHeaderDataSource,                    !- Feature Name 4
  String,                                 !- Feature Data Type 4
  TMY3,                                   !- Feature Value 4
  EPWHeaderStation,                       !- Feature Name 5
  String,                                 !- Feature Data Type 5
  725650,                                 !- Feature Value 5
  EPWHeaderLatitude,                      !- Feature Name 6
  Double,                                 !- Feature Data Type 6
  39.829999999999998,                     !- Feature Value 6
  EPWHeaderLongitude,                     !- Feature Name 7
  Double,                                 !- Feature Data Type 7
  -104.65000000000001,                    !- Feature Value 7
  EPWHeaderTimezone,                      !- Feature Name 8
  Double,                                 !- Feature Data Type 8
  -7,                                     !- Feature Value 8
  EPWHeaderAltitude,                      !- Feature Name 9
  Double,                                 !- Feature Data Type 9
  5413.3858267716532,                     !- Feature Value 9
  EPWHeaderLocalPressure,                 !- Feature Name 10
  Double,                                 !- Feature Data Type 10
  0.81937567683596546,                    !- Feature Value 10
  EPWHeaderRecordsPerHour,                !- Feature Name 11
  Double,                                 !- Feature Data Type 11
  0,                                      !- Feature Value 11
  EPWDataAnnualAvgDrybulb,                !- Feature Name 12
  Double,                                 !- Feature Data Type 12
  51.575616438356228,                     !- Feature Value 12
  EPWDataAnnualMinDrybulb,                !- Feature Name 13
  Double,                                 !- Feature Data Type 13
  -2.9200000000000017,                    !- Feature Value 13
  EPWDataAnnualMaxDrybulb,                !- Feature Name 14
  Double,                                 !- Feature Data Type 14
  104,                                    !- Feature Value 14
  EPWDataCDD50F,                          !- Feature Name 15
  Double,                                 !- Feature Data Type 15
  3072.2925000000005,                     !- Feature Value 15
  EPWDataCDD65F,                          !- Feature Name 16
  Double,                                 !- Feature Data Type 16
  883.62000000000035,                     !- Feature Value 16
  EPWDataHDD50F,                          !- Feature Name 17
  Double,                                 !- Feature Data Type 17
  2497.1925000000001,                     !- Feature Value 17
  EPWDataHDD65F,                          !- Feature Name 18
  Double,                                 !- Feature Data Type 18
  5783.5200000000013,                     !- Feature Value 18
  EPWDataAnnualAvgWindspeed,              !- Feature Name 19
  Double,                                 !- Feature Data Type 19
  3.9165296803649667,                     !- Feature Value 19
  EPWDataMonthlyAvgDrybulbs,              !- Feature Name 20
  String,                                 !- Feature Data Type 20
  33.4191935483871&#4431.90142857142857&#4443.02620967741937&#4442.48624999999999&#4459.877741935483854&#4473.57574999999997&#4472.07975806451608&#4472.70008064516134&#4466.49200000000006&#4450.079112903225806&#4437.218250000000005&#4434.582177419354835, !- Feature Value 20
  EPWDataGroundMonthlyTemps,              !- Feature Name 21
  String,                                 !- Feature Data Type 21
  44.08306285945173&#4440.89570904991865&#4440.64045432632048&#4442.153016571250646&#4448.225111118704206&#4454.268919273837525&#4459.508577937551024&#4462.82777283423508&#4463.10975667174995&#4460.41014950381947&#4455.304105212311526&#4449.445696474514364, !- Feature Value 21
  EPWDataWSF,                             !- Feature Name 22
  Double,                                 !- Feature Data Type 22
  0.58999999999999997,                    !- Feature Value 22
  EPWDataMonthlyAvgDailyHighDrybulbs,     !- Feature Name 23
  String,                                 !- Feature Data Type 23
  47.41032258064516&#4446.58642857142857&#4455.15032258064517&#4453.708&#4472.80193548387098&#4488.67600000000002&#4486.1858064516129&#4485.87225806451613&#4482.082&#4463.18064516129033&#4448.73400000000001&#4448.87935483870968, !- Feature Value 23
  EPWDataMonthlyAvgDailyLowDrybulbs,      !- Feature Name 24
  String,                                 !- Feature Data Type 24
  19.347741935483874&#4419.856428571428573&#4430.316129032258065&#4431.112&#4447.41612903225806&#4457.901999999999994&#4459.063870967741934&#4460.956774193548384&#4452.352000000000004&#4438.41612903225806&#4427.002000000000002&#4423.02903225806451, !- Feature Value 24
  EPWDesignHeatingDrybulb,                !- Feature Name 25
  Double,                                 !- Feature Data Type 25
  12.02,                                  !- Feature Value 25
  EPWDesignHeatingWindspeed,              !- Feature Name 26
  Double,                                 !- Feature Data Type 26
  2.8062500000000004,                     !- Feature Value 26
  EPWDesignCoolingDrybulb,                !- Feature Name 27
  Double,                                 !- Feature Data Type 27
  91.939999999999998,                     !- Feature Value 27
  EPWDesignCoolingWetbulb,                !- Feature Name 28
  Double,                                 !- Feature Data Type 28
  59.95131430195849,                      !- Feature Value 28
  EPWDesignCoolingHumidityRatio,          !- Feature Name 29
  Double,                                 !- Feature Data Type 29
  0.0059161086834698092,                  !- Feature Value 29
  EPWDesignCoolingWindspeed,              !- Feature Name 30
  Double,                                 !- Feature Data Type 30
  3.7999999999999989,                     !- Feature Value 30
  EPWDesignDailyTemperatureRange,         !- Feature Name 31
  Double,                                 !- Feature Data Type 31
  24.915483870967748,                     !- Feature Value 31
  EPWDesignDehumidDrybulb,                !- Feature Name 32
  Double,                                 !- Feature Data Type 32
  67.996785714285721,                     !- Feature Value 32
  EPWDesignDehumidHumidityRatio,          !- Feature Name 33
  Double,                                 !- Feature Data Type 33
  0.012133744170488724,                   !- Feature Value 33
  EPWDesignCoolingDirectNormal,           !- Feature Name 34
  Double,                                 !- Feature Data Type 34
  985,                                    !- Feature Value 34
  EPWDesignCoolingDiffuseHorizontal,      !- Feature Name 35
  Double,                                 !- Feature Data Type 35
  84;                                     !- Feature Value 35

OS:Site,
  {8ebd817e-98b4-4b6f-8a0c-c9f42a6ecc1c}, !- Handle
  Denver Intl Ap_CO_USA,                  !- Name
  39.83,                                  !- Latitude {deg}
  -104.65,                                !- Longitude {deg}
  -7,                                     !- Time Zone {hr}
  1650,                                   !- Elevation {m}
  ;                                       !- Terrain

OS:ClimateZones,
  {0f44ba0f-d146-4025-bd45-dde4f5dce51d}, !- Handle
  ,                                       !- Active Institution
  ,                                       !- Active Year
  ,                                       !- Climate Zone Institution Name 1
  ,                                       !- Climate Zone Document Name 1
  ,                                       !- Climate Zone Document Year 1
  ,                                       !- Climate Zone Value 1
  Building America,                       !- Climate Zone Institution Name 2
  ,                                       !- Climate Zone Document Name 2
  0,                                      !- Climate Zone Document Year 2
  Cold;                                   !- Climate Zone Value 2

OS:Site:WaterMainsTemperature,
  {261221cd-7f39-40cf-9aa3-b93fc0285799}, !- Handle
  Correlation,                            !- Calculation Method
  ,                                       !- Temperature Schedule Name
  10.8753424657535,                       !- Annual Average Outdoor Air Temperature {C}
  23.1524007936508;                       !- Maximum Difference In Monthly Average Outdoor Air Temperatures {deltaC}

OS:RunPeriodControl:DaylightSavingTime,
  {dc54d1dd-27e2-4a43-9799-3c9337090122}, !- Handle
  4/7,                                    !- Start Date
  10/26;                                  !- End Date

OS:Site:GroundTemperature:Deep,
  {9316ac31-0d84-4f8b-9fff-5bd9af8acf48}, !- Handle
  10.8753424657535,                       !- January Deep Ground Temperature {C}
  10.8753424657535,                       !- February Deep Ground Temperature {C}
  10.8753424657535,                       !- March Deep Ground Temperature {C}
  10.8753424657535,                       !- April Deep Ground Temperature {C}
  10.8753424657535,                       !- May Deep Ground Temperature {C}
  10.8753424657535,                       !- June Deep Ground Temperature {C}
  10.8753424657535,                       !- July Deep Ground Temperature {C}
  10.8753424657535,                       !- August Deep Ground Temperature {C}
  10.8753424657535,                       !- September Deep Ground Temperature {C}
  10.8753424657535,                       !- October Deep Ground Temperature {C}
  10.8753424657535,                       !- November Deep Ground Temperature {C}
  10.8753424657535;                       !- December Deep Ground Temperature {C}

OS:ThermalZone,
  {a2bb643c-ffd1-492b-b39c-d2f40ff5b7e5}, !- Handle
  living zone,                            !- Name
  ,                                       !- Multiplier
  ,                                       !- Ceiling Height {m}
  ,                                       !- Volume {m3}
  ,                                       !- Floor Area {m2}
  ,                                       !- Zone Inside Convection Algorithm
  ,                                       !- Zone Outside Convection Algorithm
  ,                                       !- Zone Conditioning Equipment List Name
  {5a0d9217-ba41-4e87-9575-1236606ba3f4}, !- Zone Air Inlet Port List
  {3d765aa9-f4b0-4048-8739-da61e44ac884}, !- Zone Air Exhaust Port List
  {2d5d1f4c-4161-43a8-bdfb-da07e3b04141}, !- Zone Air Node Name
  {7a2ba33f-3e42-4403-b976-666e865ecb19}, !- Zone Return Air Port List
  ,                                       !- Primary Daylighting Control Name
  ,                                       !- Fraction of Zone Controlled by Primary Daylighting Control
  ,                                       !- Secondary Daylighting Control Name
  ,                                       !- Fraction of Zone Controlled by Secondary Daylighting Control
  ,                                       !- Illuminance Map Name
  ,                                       !- Group Rendering Name
  {42cc6a55-37d6-4341-9f71-39f0c4510925}, !- Thermostat Name
  No;                                     !- Use Ideal Air Loads

OS:Node,
  {089aedbb-8476-4c5d-babf-9d1b44b4975e}, !- Handle
  Node 1,                                 !- Name
  {2d5d1f4c-4161-43a8-bdfb-da07e3b04141}, !- Inlet Port
  ;                                       !- Outlet Port

OS:Connection,
  {2d5d1f4c-4161-43a8-bdfb-da07e3b04141}, !- Handle
  {ad1ea22e-449c-4766-b4a9-6a3d36ad4c5b}, !- Name
  {a2bb643c-ffd1-492b-b39c-d2f40ff5b7e5}, !- Source Object
  11,                                     !- Outlet Port
  {089aedbb-8476-4c5d-babf-9d1b44b4975e}, !- Target Object
  2;                                      !- Inlet Port

OS:PortList,
  {5a0d9217-ba41-4e87-9575-1236606ba3f4}, !- Handle
  {be9696c0-9a1f-4790-b136-999ba7b99525}, !- Name
  {a2bb643c-ffd1-492b-b39c-d2f40ff5b7e5}, !- HVAC Component
  {1a23a4e3-ae97-44a9-a68b-0c80e8db3079}, !- Port 1
  {5e663ea6-2b1e-441a-97c5-0e492be66e4f}; !- Port 2

OS:PortList,
  {3d765aa9-f4b0-4048-8739-da61e44ac884}, !- Handle
  {cd074549-6df5-48a6-a609-10b7c9e9dc27}, !- Name
  {a2bb643c-ffd1-492b-b39c-d2f40ff5b7e5}; !- HVAC Component

OS:PortList,
  {7a2ba33f-3e42-4403-b976-666e865ecb19}, !- Handle
  {f46f0ed0-13bb-4456-9abc-3b154d32f649}, !- Name
  {a2bb643c-ffd1-492b-b39c-d2f40ff5b7e5}, !- HVAC Component
  {67007004-f853-4827-b0ce-8c3890772a79}, !- Port 1
  {933430ae-20bf-4d71-bc16-e7118e13f9d3}; !- Port 2

OS:Sizing:Zone,
  {76939968-64de-4e60-a1ba-3cf38017b886}, !- Handle
  {a2bb643c-ffd1-492b-b39c-d2f40ff5b7e5}, !- Zone or ZoneList Name
  SupplyAirTemperature,                   !- Zone Cooling Design Supply Air Temperature Input Method
  14,                                     !- Zone Cooling Design Supply Air Temperature {C}
  11.11,                                  !- Zone Cooling Design Supply Air Temperature Difference {deltaC}
  SupplyAirTemperature,                   !- Zone Heating Design Supply Air Temperature Input Method
  40,                                     !- Zone Heating Design Supply Air Temperature {C}
  11.11,                                  !- Zone Heating Design Supply Air Temperature Difference {deltaC}
  0.0085,                                 !- Zone Cooling Design Supply Air Humidity Ratio {kg-H2O/kg-air}
  0.008,                                  !- Zone Heating Design Supply Air Humidity Ratio {kg-H2O/kg-air}
  ,                                       !- Zone Heating Sizing Factor
  ,                                       !- Zone Cooling Sizing Factor
  DesignDay,                              !- Cooling Design Air Flow Method
  ,                                       !- Cooling Design Air Flow Rate {m3/s}
  ,                                       !- Cooling Minimum Air Flow per Zone Floor Area {m3/s-m2}
  ,                                       !- Cooling Minimum Air Flow {m3/s}
  ,                                       !- Cooling Minimum Air Flow Fraction
  DesignDay,                              !- Heating Design Air Flow Method
  ,                                       !- Heating Design Air Flow Rate {m3/s}
  ,                                       !- Heating Maximum Air Flow per Zone Floor Area {m3/s-m2}
  ,                                       !- Heating Maximum Air Flow {m3/s}
  ,                                       !- Heating Maximum Air Flow Fraction
  ,                                       !- Design Zone Air Distribution Effectiveness in Cooling Mode
  ,                                       !- Design Zone Air Distribution Effectiveness in Heating Mode
  No,                                     !- Account for Dedicated Outdoor Air System
  NeutralSupplyAir,                       !- Dedicated Outdoor Air System Control Strategy
  autosize,                               !- Dedicated Outdoor Air Low Setpoint Temperature for Design {C}
  autosize;                               !- Dedicated Outdoor Air High Setpoint Temperature for Design {C}

OS:ZoneHVAC:EquipmentList,
  {03cb1aa6-eb98-4c42-9c1a-bc4ff3e87ae6}, !- Handle
  Zone HVAC Equipment List 1,             !- Name
  {a2bb643c-ffd1-492b-b39c-d2f40ff5b7e5}, !- Thermal Zone
  SequentialLoad,                         !- Load Distribution Scheme
  {ca5a26fc-edca-48f0-b826-e2efd978eb96}, !- Zone Equipment 1
  1,                                      !- Zone Equipment Cooling Sequence 1
  1,                                      !- Zone Equipment Heating or No-Load Sequence 1
  ,                                       !- Zone Equipment Sequential Cooling Fraction Schedule Name 1
  ,                                       !- Zone Equipment Sequential Heating Fraction Schedule Name 1
  {18b66d87-808a-4d27-8f82-a8ae90ba0625}, !- Zone Equipment 2
  2,                                      !- Zone Equipment Cooling Sequence 2
  2,                                      !- Zone Equipment Heating or No-Load Sequence 2
  ,                                       !- Zone Equipment Sequential Cooling Fraction Schedule Name 2
  ;                                       !- Zone Equipment Sequential Heating Fraction Schedule Name 2

OS:ThermalZone,
  {27fa13fd-62b0-43b5-992d-edb73a4096bf}, !- Handle
  garage zone,                            !- Name
  ,                                       !- Multiplier
  ,                                       !- Ceiling Height {m}
  ,                                       !- Volume {m3}
  ,                                       !- Floor Area {m2}
  ,                                       !- Zone Inside Convection Algorithm
  ,                                       !- Zone Outside Convection Algorithm
  ,                                       !- Zone Conditioning Equipment List Name
  {dedee429-9800-4e9a-ba96-dde0cddd718f}, !- Zone Air Inlet Port List
  {54d47a3c-6fa3-4b70-ac70-d4800a2eabe2}, !- Zone Air Exhaust Port List
  {9614d8af-b3fc-4de8-bb7c-70d65062aa76}, !- Zone Air Node Name
  {09b7d328-0e4d-4601-90d8-76645a74b30a}, !- Zone Return Air Port List
  ,                                       !- Primary Daylighting Control Name
  ,                                       !- Fraction of Zone Controlled by Primary Daylighting Control
  ,                                       !- Secondary Daylighting Control Name
  ,                                       !- Fraction of Zone Controlled by Secondary Daylighting Control
  ,                                       !- Illuminance Map Name
  ,                                       !- Group Rendering Name
  ,                                       !- Thermostat Name
  No;                                     !- Use Ideal Air Loads

OS:Node,
  {98236c0d-51de-45c6-800e-58842c879560}, !- Handle
  Node 2,                                 !- Name
  {9614d8af-b3fc-4de8-bb7c-70d65062aa76}, !- Inlet Port
  ;                                       !- Outlet Port

OS:Connection,
  {9614d8af-b3fc-4de8-bb7c-70d65062aa76}, !- Handle
  {553fd53f-4e6e-445a-9577-f2312e32b212}, !- Name
  {27fa13fd-62b0-43b5-992d-edb73a4096bf}, !- Source Object
  11,                                     !- Outlet Port
  {98236c0d-51de-45c6-800e-58842c879560}, !- Target Object
  2;                                      !- Inlet Port

OS:PortList,
  {dedee429-9800-4e9a-ba96-dde0cddd718f}, !- Handle
  {91ff3b3e-99d6-4c70-855a-ca9619a3b048}, !- Name
  {27fa13fd-62b0-43b5-992d-edb73a4096bf}; !- HVAC Component

OS:PortList,
  {54d47a3c-6fa3-4b70-ac70-d4800a2eabe2}, !- Handle
  {8acaa698-65c9-44f4-bcde-8bfaa5a222d3}, !- Name
  {27fa13fd-62b0-43b5-992d-edb73a4096bf}; !- HVAC Component

OS:PortList,
  {09b7d328-0e4d-4601-90d8-76645a74b30a}, !- Handle
  {eae57252-add9-46bb-8199-b887c6684eb6}, !- Name
  {27fa13fd-62b0-43b5-992d-edb73a4096bf}; !- HVAC Component

OS:Sizing:Zone,
  {2769fbc3-6abd-4ebd-a19d-204fab86790e}, !- Handle
  {27fa13fd-62b0-43b5-992d-edb73a4096bf}, !- Zone or ZoneList Name
  SupplyAirTemperature,                   !- Zone Cooling Design Supply Air Temperature Input Method
  14,                                     !- Zone Cooling Design Supply Air Temperature {C}
  11.11,                                  !- Zone Cooling Design Supply Air Temperature Difference {deltaC}
  SupplyAirTemperature,                   !- Zone Heating Design Supply Air Temperature Input Method
  40,                                     !- Zone Heating Design Supply Air Temperature {C}
  11.11,                                  !- Zone Heating Design Supply Air Temperature Difference {deltaC}
  0.0085,                                 !- Zone Cooling Design Supply Air Humidity Ratio {kg-H2O/kg-air}
  0.008,                                  !- Zone Heating Design Supply Air Humidity Ratio {kg-H2O/kg-air}
  ,                                       !- Zone Heating Sizing Factor
  ,                                       !- Zone Cooling Sizing Factor
  DesignDay,                              !- Cooling Design Air Flow Method
  ,                                       !- Cooling Design Air Flow Rate {m3/s}
  ,                                       !- Cooling Minimum Air Flow per Zone Floor Area {m3/s-m2}
  ,                                       !- Cooling Minimum Air Flow {m3/s}
  ,                                       !- Cooling Minimum Air Flow Fraction
  DesignDay,                              !- Heating Design Air Flow Method
  ,                                       !- Heating Design Air Flow Rate {m3/s}
  ,                                       !- Heating Maximum Air Flow per Zone Floor Area {m3/s-m2}
  ,                                       !- Heating Maximum Air Flow {m3/s}
  ,                                       !- Heating Maximum Air Flow Fraction
  ,                                       !- Design Zone Air Distribution Effectiveness in Cooling Mode
  ,                                       !- Design Zone Air Distribution Effectiveness in Heating Mode
  No,                                     !- Account for Dedicated Outdoor Air System
  NeutralSupplyAir,                       !- Dedicated Outdoor Air System Control Strategy
  autosize,                               !- Dedicated Outdoor Air Low Setpoint Temperature for Design {C}
  autosize;                               !- Dedicated Outdoor Air High Setpoint Temperature for Design {C}

OS:ZoneHVAC:EquipmentList,
  {8c77ea8f-4a93-49e9-8e6b-1cd96aef762b}, !- Handle
  Zone HVAC Equipment List 2,             !- Name
  {27fa13fd-62b0-43b5-992d-edb73a4096bf}; !- Thermal Zone

OS:Space,
  {de374dd0-b4ee-4c14-a27d-68aa6456eba1}, !- Handle
  garage space,                           !- Name
  {1c099796-eae2-45fc-b50a-3590ed565c03}, !- Space Type Name
  ,                                       !- Default Construction Set Name
  ,                                       !- Default Schedule Set Name
  -0,                                     !- Direction of Relative North {deg}
  0,                                      !- X Origin {m}
  0,                                      !- Y Origin {m}
  0,                                      !- Z Origin {m}
  ,                                       !- Building Story Name
  {27fa13fd-62b0-43b5-992d-edb73a4096bf}; !- Thermal Zone Name

OS:Surface,
  {17b8b016-3306-4a6e-a079-604e9b99e016}, !- Handle
  Surface 1,                              !- Name
  Floor,                                  !- Surface Type
  {2b37da4d-cedb-4476-a1c6-905acbb7b793}, !- Construction Name
  {de374dd0-b4ee-4c14-a27d-68aa6456eba1}, !- Space Name
  Foundation,                             !- Outside Boundary Condition
  {05bfa0e9-9ea8-4de4-a3ac-f7b4df5f56ba}, !- Outside Boundary Condition Object
  NoSun,                                  !- Sun Exposure
  NoWind,                                 !- Wind Exposure
  ,                                       !- View Factor to Ground
  ,                                       !- Number of Vertices
  8.91701625975123, -3.048, 0,            !- X,Y,Z Vertex 1 {m}
  8.91701625975123, 3.048, 0,             !- X,Y,Z Vertex 2 {m}
  12.5746162597512, 3.048, 0,             !- X,Y,Z Vertex 3 {m}
  12.5746162597512, -3.048, 0;            !- X,Y,Z Vertex 4 {m}

OS:Surface,
  {0d1fb589-3852-4ab7-b64d-a1d0b97c69de}, !- Handle
  Surface 2,                              !- Name
  Wall,                                   !- Surface Type
  {4bacf2d3-580f-4ecd-971c-b21c33bc7234}, !- Construction Name
  {de374dd0-b4ee-4c14-a27d-68aa6456eba1}, !- Space Name
  Surface,                                !- Outside Boundary Condition
  {4251e6f1-395f-4f29-a449-cb02efca6352}, !- Outside Boundary Condition Object
  NoSun,                                  !- Sun Exposure
  NoWind,                                 !- Wind Exposure
  ,                                       !- View Factor to Ground
  ,                                       !- Number of Vertices
  8.91701625975123, 3.048, 2.4384,        !- X,Y,Z Vertex 1 {m}
  8.91701625975123, 3.048, 0,             !- X,Y,Z Vertex 2 {m}
  8.91701625975123, 0, 0,                 !- X,Y,Z Vertex 3 {m}
  8.91701625975123, 0, 2.4384;            !- X,Y,Z Vertex 4 {m}

OS:Surface,
  {c2afd67c-9c34-4182-8cec-20f98ce04950}, !- Handle
  Surface 3,                              !- Name
  Wall,                                   !- Surface Type
  {4bacf2d3-580f-4ecd-971c-b21c33bc7234}, !- Construction Name
  {de374dd0-b4ee-4c14-a27d-68aa6456eba1}, !- Space Name
  Surface,                                !- Outside Boundary Condition
  {508b6c5c-469e-48e7-a6d1-1c76eae16cf9}, !- Outside Boundary Condition Object
  NoSun,                                  !- Sun Exposure
  NoWind,                                 !- Wind Exposure
  ,                                       !- View Factor to Ground
  ,                                       !- Number of Vertices
  12.5746162597512, 3.048, 2.4384,        !- X,Y,Z Vertex 1 {m}
  12.5746162597512, 3.048, 0,             !- X,Y,Z Vertex 2 {m}
  8.91701625975123, 3.048, 0,             !- X,Y,Z Vertex 3 {m}
  8.91701625975123, 3.048, 2.4384;        !- X,Y,Z Vertex 4 {m}

OS:Surface,
  {da06e91e-1d26-4432-8a7f-ca7855069325}, !- Handle
  Surface 4,                              !- Name
  Wall,                                   !- Surface Type
  {ee081fb6-b03e-44b1-8b25-4ad097820a0d}, !- Construction Name
  {de374dd0-b4ee-4c14-a27d-68aa6456eba1}, !- Space Name
  Outdoors,                               !- Outside Boundary Condition
  ,                                       !- Outside Boundary Condition Object
  SunExposed,                             !- Sun Exposure
  WindExposed,                            !- Wind Exposure
  ,                                       !- View Factor to Ground
  ,                                       !- Number of Vertices
  12.5746162597512, -3.048, 2.4384,       !- X,Y,Z Vertex 1 {m}
  12.5746162597512, -3.048, 0,            !- X,Y,Z Vertex 2 {m}