!- NOTE: Auto-generated from /test/osw_files/SFD_HVACSizing_Load_1story_S_UA_Unvented_NoOverhangs_NoIntShading_SupplyMechVent.osw

OS:Version,
  {95ba09fc-18ff-4612-b793-193ab29bb830}, !- Handle
  2.9.0;                                  !- Version Identifier

OS:SimulationControl,
  {33fab12c-b030-4b85-b9d1-cfb25010382b}, !- Handle
  ,                                       !- Do Zone Sizing Calculation
  ,                                       !- Do System Sizing Calculation
  ,                                       !- Do Plant Sizing Calculation
  No;                                     !- Run Simulation for Sizing Periods

OS:Timestep,
  {88852e22-59d2-4b5c-bbf5-1e1e76f4d885}, !- Handle
  6;                                      !- Number of Timesteps per Hour

OS:ShadowCalculation,
  {d862733e-94e2-4945-a483-68a4b1963818}, !- Handle
  20,                                     !- Calculation Frequency
  200;                                    !- Maximum Figures in Shadow Overlap Calculations

OS:SurfaceConvectionAlgorithm:Outside,
  {42e688f7-f045-4df9-af66-4019fe82297c}, !- Handle
  DOE-2;                                  !- Algorithm

OS:SurfaceConvectionAlgorithm:Inside,
  {74f0e552-c1f8-4d84-8f36-c957a857a988}, !- Handle
  TARP;                                   !- Algorithm

OS:ZoneCapacitanceMultiplier:ResearchSpecial,
  {543ca4ee-59f1-4efc-b533-2eeced597517}, !- Handle
  ,                                       !- Temperature Capacity Multiplier
  15,                                     !- Humidity Capacity Multiplier
  ;                                       !- Carbon Dioxide Capacity Multiplier

OS:RunPeriod,
  {7a21634d-e275-44a0-a97e-86efc97f2f27}, !- Handle
  Run Period 1,                           !- Name
  1,                                      !- Begin Month
  1,                                      !- Begin Day of Month
  12,                                     !- End Month
  31,                                     !- End Day of Month
  ,                                       !- Use Weather File Holidays and Special Days
  ,                                       !- Use Weather File Daylight Saving Period
  ,                                       !- Apply Weekend Holiday Rule
  ,                                       !- Use Weather File Rain Indicators
  ,                                       !- Use Weather File Snow Indicators
  ;                                       !- Number of Times Runperiod to be Repeated

OS:YearDescription,
  {ff6208a3-cfb7-4af1-8e12-c9644d05bbfc}, !- Handle
  2007,                                   !- Calendar Year
  ,                                       !- Day of Week for Start Day
  ;                                       !- Is Leap Year

OS:WeatherFile,
  {1fc225f0-59f8-4582-8c3a-4a82a31a87c9}, !- Handle
  Denver Intl Ap,                         !- City
  CO,                                     !- State Province Region
  USA,                                    !- Country
  TMY3,                                   !- Data Source
  725650,                                 !- WMO Number
  39.83,                                  !- Latitude {deg}
  -104.65,                                !- Longitude {deg}
  -7,                                     !- Time Zone {hr}
  1650,                                   !- Elevation {m}
  file:../weather/USA_CO_Denver.Intl.AP.725650_TMY3.epw, !- Url
  E23378AA;                               !- Checksum

OS:AdditionalProperties,
  {b1fd5afc-f1b1-4c03-b735-02acb1042d9a}, !- Handle
  {1fc225f0-59f8-4582-8c3a-4a82a31a87c9}, !- Object Name
  EPWHeaderCity,                          !- Feature Name 1
  String,                                 !- Feature Data Type 1
  Denver Intl Ap,                         !- Feature Value 1
  EPWHeaderState,                         !- Feature Name 2
  String,                                 !- Feature Data Type 2
  CO,                                     !- Feature Value 2
  EPWHeaderCountry,                       !- Feature Name 3
  String,                                 !- Feature Data Type 3
  USA,                                    !- Feature Value 3
  EPWHeaderDataSource,                    !- Feature Name 4
  String,                                 !- Feature Data Type 4
  TMY3,                                   !- Feature Value 4
  EPWHeaderStation,                       !- Feature Name 5
  String,                                 !- Feature Data Type 5
  725650,                                 !- Feature Value 5
  EPWHeaderLatitude,                      !- Feature Name 6
  Double,                                 !- Feature Data Type 6
  39.829999999999998,                     !- Feature Value 6
  EPWHeaderLongitude,                     !- Feature Name 7
  Double,                                 !- Feature Data Type 7
  -104.65000000000001,                    !- Feature Value 7
  EPWHeaderTimezone,                      !- Feature Name 8
  Double,                                 !- Feature Data Type 8
  -7,                                     !- Feature Value 8
  EPWHeaderAltitude,                      !- Feature Name 9
  Double,                                 !- Feature Data Type 9
  5413.3858267716532,                     !- Feature Value 9
  EPWHeaderLocalPressure,                 !- Feature Name 10
  Double,                                 !- Feature Data Type 10
  0.81937567683596546,                    !- Feature Value 10
  EPWHeaderRecordsPerHour,                !- Feature Name 11
  Double,                                 !- Feature Data Type 11
  0,                                      !- Feature Value 11
  EPWDataAnnualAvgDrybulb,                !- Feature Name 12
  Double,                                 !- Feature Data Type 12
  51.575616438356228,                     !- Feature Value 12
  EPWDataAnnualMinDrybulb,                !- Feature Name 13
  Double,                                 !- Feature Data Type 13
  -2.9200000000000017,                    !- Feature Value 13
  EPWDataAnnualMaxDrybulb,                !- Feature Name 14
  Double,                                 !- Feature Data Type 14
  104,                                    !- Feature Value 14
  EPWDataCDD50F,                          !- Feature Name 15
  Double,                                 !- Feature Data Type 15
  3072.2925000000005,                     !- Feature Value 15
  EPWDataCDD65F,                          !- Feature Name 16
  Double,                                 !- Feature Data Type 16
  883.62000000000035,                     !- Feature Value 16
  EPWDataHDD50F,                          !- Feature Name 17
  Double,                                 !- Feature Data Type 17
  2497.1925000000001,                     !- Feature Value 17
  EPWDataHDD65F,                          !- Feature Name 18
  Double,                                 !- Feature Data Type 18
  5783.5200000000013,                     !- Feature Value 18
  EPWDataAnnualAvgWindspeed,              !- Feature Name 19
  Double,                                 !- Feature Data Type 19
  3.9165296803649667,                     !- Feature Value 19
  EPWDataMonthlyAvgDrybulbs,              !- Feature Name 20
  String,                                 !- Feature Data Type 20
  33.4191935483871&#4431.90142857142857&#4443.02620967741937&#4442.48624999999999&#4459.877741935483854&#4473.57574999999997&#4472.07975806451608&#4472.70008064516134&#4466.49200000000006&#4450.079112903225806&#4437.218250000000005&#4434.582177419354835, !- Feature Value 20
  EPWDataGroundMonthlyTemps,              !- Feature Name 21
  String,                                 !- Feature Data Type 21
  44.08306285945173&#4440.89570904991865&#4440.64045432632048&#4442.153016571250646&#4448.225111118704206&#4454.268919273837525&#4459.508577937551024&#4462.82777283423508&#4463.10975667174995&#4460.41014950381947&#4455.304105212311526&#4449.445696474514364, !- Feature Value 21
  EPWDataWSF,                             !- Feature Name 22
  Double,                                 !- Feature Data Type 22
  0.58999999999999997,                    !- Feature Value 22
  EPWDataMonthlyAvgDailyHighDrybulbs,     !- Feature Name 23
  String,                                 !- Feature Data Type 23
  47.41032258064516&#4446.58642857142857&#4455.15032258064517&#4453.708&#4472.80193548387098&#4488.67600000000002&#4486.1858064516129&#4485.87225806451613&#4482.082&#4463.18064516129033&#4448.73400000000001&#4448.87935483870968, !- Feature Value 23
  EPWDataMonthlyAvgDailyLowDrybulbs,      !- Feature Name 24
  String,                                 !- Feature Data Type 24
  19.347741935483874&#4419.856428571428573&#4430.316129032258065&#4431.112&#4447.41612903225806&#4457.901999999999994&#4459.063870967741934&#4460.956774193548384&#4452.352000000000004&#4438.41612903225806&#4427.002000000000002&#4423.02903225806451, !- Feature Value 24
  EPWDesignHeatingDrybulb,                !- Feature Name 25
  Double,                                 !- Feature Data Type 25
  12.02,                                  !- Feature Value 25
  EPWDesignHeatingWindspeed,              !- Feature Name 26
  Double,                                 !- Feature Data Type 26
  2.8062500000000004,                     !- Feature Value 26
  EPWDesignCoolingDrybulb,                !- Feature Name 27
  Double,                                 !- Feature Data Type 27
  91.939999999999998,                     !- Feature Value 27
  EPWDesignCoolingWetbulb,                !- Feature Name 28
  Double,                                 !- Feature Data Type 28
  59.95131430195849,                      !- Feature Value 28
  EPWDesignCoolingHumidityRatio,          !- Feature Name 29
  Double,                                 !- Feature Data Type 29
  0.0059161086834698092,                  !- Feature Value 29
  EPWDesignCoolingWindspeed,              !- Feature Name 30
  Double,                                 !- Feature Data Type 30
  3.7999999999999989,                     !- Feature Value 30
  EPWDesignDailyTemperatureRange,         !- Feature Name 31
  Double,                                 !- Feature Data Type 31
  24.915483870967748,                     !- Feature Value 31
  EPWDesignDehumidDrybulb,                !- Feature Name 32
  Double,                                 !- Feature Data Type 32
  67.996785714285721,                     !- Feature Value 32
  EPWDesignDehumidHumidityRatio,          !- Feature Name 33
  Double,                                 !- Feature Data Type 33
  0.012133744170488724,                   !- Feature Value 33
  EPWDesignCoolingDirectNormal,           !- Feature Name 34
  Double,                                 !- Feature Data Type 34
  985,                                    !- Feature Value 34
  EPWDesignCoolingDiffuseHorizontal,      !- Feature Name 35
  Double,                                 !- Feature Data Type 35
  84;                                     !- Feature Value 35

OS:Site,
  {c7652dd8-2b9e-4bad-987c-45f0b613ac86}, !- Handle
  Denver Intl Ap_CO_USA,                  !- Name
  39.83,                                  !- Latitude {deg}
  -104.65,                                !- Longitude {deg}
  -7,                                     !- Time Zone {hr}
  1650,                                   !- Elevation {m}
  ;                                       !- Terrain

OS:ClimateZones,
  {2fbe13d0-4ea4-401d-b755-435f3af63e12}, !- Handle
  ,                                       !- Active Institution
  ,                                       !- Active Year
  ,                                       !- Climate Zone Institution Name 1
  ,                                       !- Climate Zone Document Name 1
  ,                                       !- Climate Zone Document Year 1
  ,                                       !- Climate Zone Value 1
  Building America,                       !- Climate Zone Institution Name 2
  ,                                       !- Climate Zone Document Name 2
  0,                                      !- Climate Zone Document Year 2
  Cold;                                   !- Climate Zone Value 2

OS:Site:WaterMainsTemperature,
  {7dbf8ef5-fe8c-408d-b719-e689de123a36}, !- Handle
  Correlation,                            !- Calculation Method
  ,                                       !- Temperature Schedule Name
  10.8753424657535,                       !- Annual Average Outdoor Air Temperature {C}
  23.1524007936508;                       !- Maximum Difference In Monthly Average Outdoor Air Temperatures {deltaC}

OS:RunPeriodControl:DaylightSavingTime,
  {c2da9005-161b-488b-af31-341013cbc5ff}, !- Handle
  4/7,                                    !- Start Date
  10/26;                                  !- End Date

OS:Site:GroundTemperature:Deep,
  {6b487dac-a37b-468d-9da5-b93cf61ef7e9}, !- Handle
  10.8753424657535,                       !- January Deep Ground Temperature {C}
  10.8753424657535,                       !- February Deep Ground Temperature {C}
  10.8753424657535,                       !- March Deep Ground Temperature {C}
  10.8753424657535,                       !- April Deep Ground Temperature {C}
  10.8753424657535,                       !- May Deep Ground Temperature {C}
  10.8753424657535,                       !- June Deep Ground Temperature {C}
  10.8753424657535,                       !- July Deep Ground Temperature {C}
  10.8753424657535,                       !- August Deep Ground Temperature {C}
  10.8753424657535,                       !- September Deep Ground Temperature {C}
  10.8753424657535,                       !- October Deep Ground Temperature {C}
  10.8753424657535,                       !- November Deep Ground Temperature {C}
  10.8753424657535;                       !- December Deep Ground Temperature {C}

OS:ThermalZone,
  {74a9fc5a-dd3e-4663-8994-a8b4e7d6e30a}, !- Handle
  living zone,                            !- Name
  ,                                       !- Multiplier
  ,                                       !- Ceiling Height {m}
  ,                                       !- Volume {m3}
  ,                                       !- Floor Area {m2}
  ,                                       !- Zone Inside Convection Algorithm
  ,                                       !- Zone Outside Convection Algorithm
  ,                                       !- Zone Conditioning Equipment List Name
  {e5a3eb9b-6e7b-4c80-8e3e-3dbadad43fe8}, !- Zone Air Inlet Port List
  {71c18480-71f6-48eb-aafe-8f271a8159b1}, !- Zone Air Exhaust Port List
  {0091497d-167d-4ee9-81b9-7bd45acc117f}, !- Zone Air Node Name
  {c946956f-d4bd-4df9-9d88-1aad29ee95b3}, !- Zone Return Air Port List
  ,                                       !- Primary Daylighting Control Name
  ,                                       !- Fraction of Zone Controlled by Primary Daylighting Control
  ,                                       !- Secondary Daylighting Control Name
  ,                                       !- Fraction of Zone Controlled by Secondary Daylighting Control
  ,                                       !- Illuminance Map Name
  ,                                       !- Group Rendering Name
  ,                                       !- Thermostat Name
  No;                                     !- Use Ideal Air Loads

OS:Node,
  {fab69b48-c858-4452-a5e2-a99be0c573f5}, !- Handle
  Node 1,                                 !- Name
  {0091497d-167d-4ee9-81b9-7bd45acc117f}, !- Inlet Port
  ;                                       !- Outlet Port

OS:Connection,
  {0091497d-167d-4ee9-81b9-7bd45acc117f}, !- Handle
  {0c405b52-707b-4fe1-adc4-1b71c7009e73}, !- Name
  {74a9fc5a-dd3e-4663-8994-a8b4e7d6e30a}, !- Source Object
  11,                                     !- Outlet Port
  {fab69b48-c858-4452-a5e2-a99be0c573f5}, !- Target Object
  2;                                      !- Inlet Port

OS:PortList,
  {e5a3eb9b-6e7b-4c80-8e3e-3dbadad43fe8}, !- Handle
  {0f10f866-3609-42a4-a3ff-fc9332fc4812}, !- Name
  {74a9fc5a-dd3e-4663-8994-a8b4e7d6e30a}; !- HVAC Component

OS:PortList,
  {71c18480-71f6-48eb-aafe-8f271a8159b1}, !- Handle
  {03057580-563d-48fd-baa5-978116a12108}, !- Name
  {74a9fc5a-dd3e-4663-8994-a8b4e7d6e30a}; !- HVAC Component

OS:PortList,
  {c946956f-d4bd-4df9-9d88-1aad29ee95b3}, !- Handle
  {0274ef09-a5fd-4424-ad2b-4a12d6bb3185}, !- Name
  {74a9fc5a-dd3e-4663-8994-a8b4e7d6e30a}; !- HVAC Component

OS:Sizing:Zone,
  {8c1b6b4f-c871-4bd7-b3ff-7a55e60660d7}, !- Handle
  {74a9fc5a-dd3e-4663-8994-a8b4e7d6e30a}, !- Zone or ZoneList Name
  SupplyAirTemperature,                   !- Zone Cooling Design Supply Air Temperature Input Method
  14,                                     !- Zone Cooling Design Supply Air Temperature {C}
  11.11,                                  !- Zone Cooling Design Supply Air Temperature Difference {deltaC}
  SupplyAirTemperature,                   !- Zone Heating Design Supply Air Temperature Input Method
  40,                                     !- Zone Heating Design Supply Air Temperature {C}
  11.11,                                  !- Zone Heating Design Supply Air Temperature Difference {deltaC}
  0.0085,                                 !- Zone Cooling Design Supply Air Humidity Ratio {kg-H2O/kg-air}
  0.008,                                  !- Zone Heating Design Supply Air Humidity Ratio {kg-H2O/kg-air}
  ,                                       !- Zone Heating Sizing Factor
  ,                                       !- Zone Cooling Sizing Factor
  DesignDay,                              !- Cooling Design Air Flow Method
  ,                                       !- Cooling Design Air Flow Rate {m3/s}
  ,                                       !- Cooling Minimum Air Flow per Zone Floor Area {m3/s-m2}
  ,                                       !- Cooling Minimum Air Flow {m3/s}
  ,                                       !- Cooling Minimum Air Flow Fraction
  DesignDay,                              !- Heating Design Air Flow Method
  ,                                       !- Heating Design Air Flow Rate {m3/s}
  ,                                       !- Heating Maximum Air Flow per Zone Floor Area {m3/s-m2}
  ,                                       !- Heating Maximum Air Flow {m3/s}
  ,                                       !- Heating Maximum Air Flow Fraction
  ,                                       !- Design Zone Air Distribution Effectiveness in Cooling Mode
  ,                                       !- Design Zone Air Distribution Effectiveness in Heating Mode
  No,                                     !- Account for Dedicated Outdoor Air System
  NeutralSupplyAir,                       !- Dedicated Outdoor Air System Control Strategy
  autosize,                               !- Dedicated Outdoor Air Low Setpoint Temperature for Design {C}
  autosize;                               !- Dedicated Outdoor Air High Setpoint Temperature for Design {C}

OS:ZoneHVAC:EquipmentList,
  {fce584e3-1a39-4400-acd6-1aff60112b1e}, !- Handle
  Zone HVAC Equipment List 1,             !- Name
  {74a9fc5a-dd3e-4663-8994-a8b4e7d6e30a}; !- Thermal Zone

OS:Space,
  {a1293807-887b-4032-bedd-847615220e3c}, !- Handle
  living space,                           !- Name
  {b3136a90-1c11-4189-8652-7c105870ee34}, !- Space Type Name
  ,                                       !- Default Construction Set Name
  ,                                       !- Default Schedule Set Name
  -0,                                     !- Direction of Relative North {deg}
  0,                                      !- X Origin {m}
  0,                                      !- Y Origin {m}
  0,                                      !- Z Origin {m}
  ,                                       !- Building Story Name
  {74a9fc5a-dd3e-4663-8994-a8b4e7d6e30a}, !- Thermal Zone Name
  ,                                       !- Part of Total Floor Area
  ,                                       !- Design Specification Outdoor Air Object Name
  {09f442f1-fb2a-4140-ad3f-e0e10962cd8d}; !- Building Unit Name

OS:Surface,
  {37bdac08-3aeb-43b3-a847-db2a1d693d93}, !- Handle
  Surface 1,                              !- Name
  Floor,                                  !- Surface Type
  {fef10bda-fe23-4470-bd69-07302b5bb3fd}, !- Construction Name
  {a1293807-887b-4032-bedd-847615220e3c}, !- Space Name
  Foundation,                             !- Outside Boundary Condition
  {738544d1-d83b-4a16-ba71-b08da2b6e45c}, !- Outside Boundary Condition Object
  NoSun,                                  !- Sun Exposure
  NoWind,                                 !- Wind Exposure
  ,                                       !- View Factor to Ground
  ,                                       !- Number of Vertices
  0, 0, 0,                                !- X,Y,Z Vertex 1 {m}
  0, 10.7471427258245, 0,                 !- X,Y,Z Vertex 2 {m}
  17.2888817744574, 10.7471427258245, 0,  !- X,Y,Z Vertex 3 {m}
  17.2888817744574, 0, 0;                 !- X,Y,Z Vertex 4 {m}

OS:Surface,
  {35945703-0038-4cf1-a22b-34bb36da4d26}, !- Handle
  Surface 2,                              !- Name
  Wall,                                   !- Surface Type
  {67d4fc6f-5dfd-4a99-8648-7c2cf3c1f7d1}, !- Construction Name
  {a1293807-887b-4032-bedd-847615220e3c}, !- Space Name
  Outdoors,                               !- Outside Boundary Condition
  ,                                       !- Outside Boundary Condition Object
  SunExposed,                             !- Sun Exposure
  WindExposed,                            !- Wind Exposure
  ,                                       !- View Factor to Ground
  ,                                       !- Number of Vertices
  0, 10.7471427258245, 2.4384,            !- X,Y,Z Vertex 1 {m}
  0, 10.7471427258245, 0,                 !- X,Y,Z Vertex 2 {m}
  0, 0, 0,                                !- X,Y,Z Vertex 3 {m}
  0, 0, 2.4384;                           !- X,Y,Z Vertex 4 {m}

OS:Surface,
  {d7a2d9bb-2d54-4554-9a4b-e4c889644aa0}, !- Handle
  Surface 3,                              !- Name
  Wall,                                   !- Surface Type
  {67d4fc6f-5dfd-4a99-8648-7c2cf3c1f7d1}, !- Construction Name
  {a1293807-887b-4032-bedd-847615220e3c}, !- Space Name
  Outdoors,                               !- Outside Boundary Condition
  ,                                       !- Outside Boundary Condition Object
  SunExposed,                             !- Sun Exposure
  WindExposed,                            !- Wind Exposure
  ,                                       !- View Factor to Ground
  ,                                       !- Number of Vertices
  17.2888817744574, 10.7471427258245, 2.4384, !- X,Y,Z Vertex 1 {m}
  17.2888817744574, 10.7471427258245, 0,  !- X,Y,Z Vertex 2 {m}
  0, 10.7471427258245, 0,                 !- X,Y,Z Vertex 3 {m}
  0, 10.7471427258245, 2.4384;            !- X,Y,Z Vertex 4 {m}

OS:Surface,
  {02d271dd-d0d8-49b2-a3cf-c4ebe43638e9}, !- Handle
  Surface 4,                              !- Name
  Wall,                                   !- Surface Type
  {67d4fc6f-5dfd-4a99-8648-7c2cf3c1f7d1}, !- Construction Name
  {a1293807-887b-4032-bedd-847615220e3c}, !- Space Name
  Outdoors,                               !- Outside Boundary Condition
  ,                                       !- Outside Boundary Condition Object
  SunExposed,                             !- Sun Exposure
  WindExposed,                            !- Wind Exposure
  ,                                       !- View Factor to Ground
  ,                                       !- Number of Vertices
  17.2888817744574, 0, 2.4384,            !- X,Y,Z Vertex 1 {m}
  17.2888817744574, 0, 0,                 !- X,Y,Z Vertex 2 {m}
  17.2888817744574, 10.7471427258245, 0,  !- X,Y,Z Vertex 3 {m}
  17.2888817744574, 10.7471427258245, 2.4384; !- X,Y,Z Vertex 4 {m}

OS:Surface,
  {3c215bed-ef2a-433f-ad40-509e8bd5dd1b}, !- Handle
  Surface 5,                              !- Name
  Wall,                                   !- Surface Type
  {67d4fc6f-5dfd-4a99-8648-7c2cf3c1f7d1}, !- Construction Name
  {a1293807-887b-4032-bedd-847615220e3c}, !- Space Name
  Outdoors,                               !- Outside Boundary Condition
  ,                                       !- Outside Boundary Condition Object
  SunExposed,                             !- Sun Exposure
  WindExposed,                            !- Wind Exposure
  ,                                       !- View Factor to Ground
  ,                                       !- Number of Vertices
  17.2888817744574, 0, 0,                 !- X,Y,Z Vertex 1 {m}
  17.2888817744574, 0, 2.4384,            !- X,Y,Z Vertex 2 {m}
  1.04865714285714, 0, 2.4384,            !- X,Y,Z Vertex 3 {m}
  1.04865714285714, 0, 0;                 !- X,Y,Z Vertex 4 {m}

OS:Surface,
  {05a4b90b-a138-49dc-b122-c41a519a437b}, !- Handle
  Surface 6,                              !- Name
  RoofCeiling,                            !- Surface Type
  {568c82a2-3f4b-47b1-a0ce-da948d8f902e}, !- Construction Name
  {a1293807-887b-4032-bedd-847615220e3c}, !- Space Name
  Surface,                                !- Outside Boundary Condition
  {8ca42c4d-9974-4a18-b9d4-98906681149d}, !- Outside Boundary Condition Object
  NoSun,                                  !- Sun Exposure
  NoWind,                                 !- Wind Exposure
  ,                                       !- View Factor to Ground
  ,                                       !- Number of Vertices
  17.2888817744574, 0, 2.4384,            !- X,Y,Z Vertex 1 {m}
  17.2888817744574, 10.7471427258245, 2.4384, !- X,Y,Z Vertex 2 {m}
  0, 10.7471427258245, 2.4384,            !- X,Y,Z Vertex 3 {m}
  0, 0, 2.4384;                           !- X,Y,Z Vertex 4 {m}

OS:SpaceType,
  {b3136a90-1c11-4189-8652-7c105870ee34}, !- Handle
  Space Type 1,                           !- Name
  ,                                       !- Default Construction Set Name
  ,                                       !- Default Schedule Set Name
  ,                                       !- Group Rendering Name
  ,                                       !- Design Specification Outdoor Air Object Name
  ,                                       !- Standards Template
  ,                                       !- Standards Building Type
  living;                                 !- Standards Space Type

OS:Surface,
  {8ca42c4d-9974-4a18-b9d4-98906681149d}, !- Handle
  Surface 7,                              !- Name
  Floor,                                  !- Surface Type
  {29044ab0-cf68-486e-898c-7b78e93dbdfd}, !- Construction Name
  {0cd78a28-ef32-418b-9f20-1201468186d4}, !- Space Name
  Surface,                                !- Outside Boundary Condition
  {05a4b90b-a138-49dc-b122-c41a519a437b}, !- Outside Boundary Condition Object
  NoSun,                                  !- Sun Exposure
  NoWind,                                 !- Wind Exposure
  ,                                       !- View Factor to Ground
  ,                                       !- Number of Vertices
  0, 10.7471427258245, 0,                 !- X,Y,Z Vertex 1 {m}
  17.2888817744574, 10.7471427258245, 0,  !- X,Y,Z Vertex 2 {m}
  17.2888817744574, 0, 0,                 !- X,Y,Z Vertex 3 {m}
  0, 0, 0;                                !- X,Y,Z Vertex 4 {m}

OS:Surface,
  {c1b50c5f-5c1b-4f8d-abd3-eafcfd98c8ef}, !- Handle
  Surface 8,                              !- Name
  RoofCeiling,                            !- Surface Type
  {ac500947-925f-45ec-a696-eb7f53c9712b}, !- Construction Name
  {0cd78a28-ef32-418b-9f20-1201468186d4}, !- Space Name
  Outdoors,                               !- Outside Boundary Condition
  ,                                       !- Outside Boundary Condition Object
  SunExposed,                             !- Sun Exposure
  WindExposed,                            !- Wind Exposure
  ,                                       !- View Factor to Ground
  ,                                       !- Number of Vertices
  17.2888817744574, 5.37357136291227, 2.68678568145614, !- X,Y,Z Vertex 1 {m}
  0, 5.37357136291227, 2.68678568145614,  !- X,Y,Z Vertex 2 {m}
  0, 0, 0,                                !- X,Y,Z Vertex 3 {m}
  17.2888817744574, 0, 0;                 !- X,Y,Z Vertex 4 {m}

OS:Surface,
  {df55b004-bce7-46e3-98f5-873267a87ea2}, !- Handle
  Surface 9,                              !- Name
  RoofCeiling,                            !- Surface Type
  {ac500947-925f-45ec-a696-eb7f53c9712b}, !- Construction Name
  {0cd78a28-ef32-418b-9f20-1201468186d4}, !- Space Name
  Outdoors,                               !- Outside Boundary Condition
  ,                                       !- Outside Boundary Condition Object
  SunExposed,                             !- Sun Exposure
  WindExposed,                            !- Wind Exposure
  ,                                       !- View Factor to Ground
  ,                                       !- Number of Vertices
  0, 5.37357136291227, 2.68678568145614,  !- X,Y,Z Vertex 1 {m}
  17.2888817744574, 5.37357136291227, 2.68678568145614, !- X,Y,Z Vertex 2 {m}
  17.2888817744574, 10.7471427258245, 0,  !- X,Y,Z Vertex 3 {m}
  0, 10.7471427258245, 0;                 !- X,Y,Z Vertex 4 {m}

OS:Surface,
  {bdcc5c5b-0e95-4582-8164-4c579d46dc98}, !- Handle
  Surface 10,                             !- Name
  Wall,                                   !- Surface Type
  {cff978cf-3075-4737-b9e6-74e078d68f7c}, !- Construction Name
  {0cd78a28-ef32-418b-9f20-1201468186d4}, !- Space Name
  Outdoors,                               !- Outside Boundary Condition
  ,                                       !- Outside Boundary Condition Object
  SunExposed,                             !- Sun Exposure
  WindExposed,                            !- Wind Exposure
  ,                                       !- View Factor to Ground
  ,                                       !- Number of Vertices