!- NOTE: Auto-generated from /test/osw_files/SFD_2000sqft_2story_CS_GRG_UA.osw

OS:Version,
  {3972668b-cfc6-441c-96d2-19c1a04d5634}, !- Handle
  2.8.0;                                  !- Version Identifier

OS:SimulationControl,
  {33667b28-418b-4fd8-b1ef-ed2de5c0e8df}, !- Handle
  ,                                       !- Do Zone Sizing Calculation
  ,                                       !- Do System Sizing Calculation
  ,                                       !- Do Plant Sizing Calculation
  No;                                     !- Run Simulation for Sizing Periods

OS:Timestep,
  {e30811dd-07d5-4776-931d-00faed4ed286}, !- Handle
  6;                                      !- Number of Timesteps per Hour

OS:ShadowCalculation,
  {64e2f7f8-4d5f-4ace-bb13-b297b09f963a}, !- Handle
  20,                                     !- Calculation Frequency
  200;                                    !- Maximum Figures in Shadow Overlap Calculations

OS:SurfaceConvectionAlgorithm:Outside,
  {63155956-7e90-427b-81b1-b8be170383b0}, !- Handle
  DOE-2;                                  !- Algorithm

OS:SurfaceConvectionAlgorithm:Inside,
  {36b1cf06-3ba9-4c10-9930-548cc2abd87f}, !- Handle
  TARP;                                   !- Algorithm

OS:ZoneCapacitanceMultiplier:ResearchSpecial,
  {ae204531-3cd2-4c4f-9a02-53831017f780}, !- Handle
  ,                                       !- Temperature Capacity Multiplier
  15,                                     !- Humidity Capacity Multiplier
  ;                                       !- Carbon Dioxide Capacity Multiplier

OS:RunPeriod,
  {bca2b702-82e6-4c13-abed-2c113963901f}, !- Handle
  Run Period 1,                           !- Name
  1,                                      !- Begin Month
  1,                                      !- Begin Day of Month
  12,                                     !- End Month
  31,                                     !- End Day of Month
  ,                                       !- Use Weather File Holidays and Special Days
  ,                                       !- Use Weather File Daylight Saving Period
  ,                                       !- Apply Weekend Holiday Rule
  ,                                       !- Use Weather File Rain Indicators
  ,                                       !- Use Weather File Snow Indicators
  ;                                       !- Number of Times Runperiod to be Repeated

OS:ThermalZone,
  {c101c3af-7302-4dfa-8610-e0306139b597}, !- Handle
  living zone,                            !- Name
  ,                                       !- Multiplier
  ,                                       !- Ceiling Height {m}
  ,                                       !- Volume {m3}
  ,                                       !- Floor Area {m2}
  ,                                       !- Zone Inside Convection Algorithm
  ,                                       !- Zone Outside Convection Algorithm
  ,                                       !- Zone Conditioning Equipment List Name
  {e0a6bda5-4f31-4f9c-8717-14883cc1867c}, !- Zone Air Inlet Port List
  {65dcf705-97b1-4081-adb0-4d35e49584bd}, !- Zone Air Exhaust Port List
  {3a8525e2-7a59-416a-965d-cb4384e57133}, !- Zone Air Node Name
  {6ea75fe1-ad4c-40a9-9f0b-6272d2423823}, !- Zone Return Air Port List
  ,                                       !- Primary Daylighting Control Name
  ,                                       !- Fraction of Zone Controlled by Primary Daylighting Control
  ,                                       !- Secondary Daylighting Control Name
  ,                                       !- Fraction of Zone Controlled by Secondary Daylighting Control
  ,                                       !- Illuminance Map Name
  ,                                       !- Group Rendering Name
  ,                                       !- Thermostat Name
  No;                                     !- Use Ideal Air Loads

OS:Node,
  {2aa7eae7-6fb1-42a6-bf4d-60ec74f3c3c5}, !- Handle
  Node 1,                                 !- Name
  {3a8525e2-7a59-416a-965d-cb4384e57133}, !- Inlet Port
  ;                                       !- Outlet Port

OS:Connection,
  {3a8525e2-7a59-416a-965d-cb4384e57133}, !- Handle
  {400037b5-986e-4512-89b8-9322d2082a62}, !- Name
  {c101c3af-7302-4dfa-8610-e0306139b597}, !- Source Object
  11,                                     !- Outlet Port
  {2aa7eae7-6fb1-42a6-bf4d-60ec74f3c3c5}, !- Target Object
  2;                                      !- Inlet Port

OS:PortList,
  {e0a6bda5-4f31-4f9c-8717-14883cc1867c}, !- Handle
  {f1fe9094-9964-4d5d-bb05-db9a2c081ecf}, !- Name
  {c101c3af-7302-4dfa-8610-e0306139b597}; !- HVAC Component

OS:PortList,
  {65dcf705-97b1-4081-adb0-4d35e49584bd}, !- Handle
  {003ebb57-466a-4edb-a50e-7fa43775b92c}, !- Name
  {c101c3af-7302-4dfa-8610-e0306139b597}; !- HVAC Component

OS:PortList,
  {6ea75fe1-ad4c-40a9-9f0b-6272d2423823}, !- Handle
  {eba5fa4d-6e4a-45fd-ba5d-519b5ee2232f}, !- Name
  {c101c3af-7302-4dfa-8610-e0306139b597}; !- HVAC Component

OS:Sizing:Zone,
  {11f8fac0-5f69-496a-a8b1-67412e3ccfd4}, !- Handle
  {c101c3af-7302-4dfa-8610-e0306139b597}, !- Zone or ZoneList Name
  SupplyAirTemperature,                   !- Zone Cooling Design Supply Air Temperature Input Method
  14,                                     !- Zone Cooling Design Supply Air Temperature {C}
  11.11,                                  !- Zone Cooling Design Supply Air Temperature Difference {deltaC}
  SupplyAirTemperature,                   !- Zone Heating Design Supply Air Temperature Input Method
  40,                                     !- Zone Heating Design Supply Air Temperature {C}
  11.11,                                  !- Zone Heating Design Supply Air Temperature Difference {deltaC}
  0.0085,                                 !- Zone Cooling Design Supply Air Humidity Ratio {kg-H2O/kg-air}
  0.008,                                  !- Zone Heating Design Supply Air Humidity Ratio {kg-H2O/kg-air}
  ,                                       !- Zone Heating Sizing Factor
  ,                                       !- Zone Cooling Sizing Factor
  DesignDay,                              !- Cooling Design Air Flow Method
  ,                                       !- Cooling Design Air Flow Rate {m3/s}
  ,                                       !- Cooling Minimum Air Flow per Zone Floor Area {m3/s-m2}
  ,                                       !- Cooling Minimum Air Flow {m3/s}
  ,                                       !- Cooling Minimum Air Flow Fraction
  DesignDay,                              !- Heating Design Air Flow Method
  ,                                       !- Heating Design Air Flow Rate {m3/s}
  ,                                       !- Heating Maximum Air Flow per Zone Floor Area {m3/s-m2}
  ,                                       !- Heating Maximum Air Flow {m3/s}
  ,                                       !- Heating Maximum Air Flow Fraction
  ,                                       !- Design Zone Air Distribution Effectiveness in Cooling Mode
  ,                                       !- Design Zone Air Distribution Effectiveness in Heating Mode
  No,                                     !- Account for Dedicated Outdoor Air System
  NeutralSupplyAir,                       !- Dedicated Outdoor Air System Control Strategy
  autosize,                               !- Dedicated Outdoor Air Low Setpoint Temperature for Design {C}
  autosize;                               !- Dedicated Outdoor Air High Setpoint Temperature for Design {C}

OS:ZoneHVAC:EquipmentList,
  {0e52da37-1b53-49f9-b356-14faed0eec63}, !- Handle
  Zone HVAC Equipment List 1,             !- Name
  {c101c3af-7302-4dfa-8610-e0306139b597}; !- Thermal Zone

OS:ThermalZone,
  {9b021cb6-5348-4530-af2b-69e8a0bcca6b}, !- Handle
  garage zone,                            !- Name
  ,                                       !- Multiplier
  ,                                       !- Ceiling Height {m}
  ,                                       !- Volume {m3}
  ,                                       !- Floor Area {m2}
  ,                                       !- Zone Inside Convection Algorithm
  ,                                       !- Zone Outside Convection Algorithm
  ,                                       !- Zone Conditioning Equipment List Name
  {e605a1ff-6794-486c-9cd2-4fbc28497b56}, !- Zone Air Inlet Port List
  {55bfa552-52fd-44a9-8c86-d808859c7557}, !- Zone Air Exhaust Port List
  {2fcc4823-cb24-4b46-9c4e-57ba09d6b25c}, !- Zone Air Node Name
  {c647ed35-d466-4c40-bdc2-8463d0124114}, !- Zone Return Air Port List
  ,                                       !- Primary Daylighting Control Name
  ,                                       !- Fraction of Zone Controlled by Primary Daylighting Control
  ,                                       !- Secondary Daylighting Control Name
  ,                                       !- Fraction of Zone Controlled by Secondary Daylighting Control
  ,                                       !- Illuminance Map Name
  ,                                       !- Group Rendering Name
  ,                                       !- Thermostat Name
  No;                                     !- Use Ideal Air Loads

OS:Node,
  {a20be8bb-3a57-4e61-8943-4aed8472d3a5}, !- Handle
  Node 2,                                 !- Name
  {2fcc4823-cb24-4b46-9c4e-57ba09d6b25c}, !- Inlet Port
  ;                                       !- Outlet Port

OS:Connection,
  {2fcc4823-cb24-4b46-9c4e-57ba09d6b25c}, !- Handle
  {8deb4ccb-fe3f-4f2e-b1c9-63257f728b1b}, !- Name
  {9b021cb6-5348-4530-af2b-69e8a0bcca6b}, !- Source Object
  11,                                     !- Outlet Port
  {a20be8bb-3a57-4e61-8943-4aed8472d3a5}, !- Target Object
  2;                                      !- Inlet Port

OS:PortList,
  {e605a1ff-6794-486c-9cd2-4fbc28497b56}, !- Handle
  {123df919-0376-4f5b-b2ca-51c5a000e1bf}, !- Name
  {9b021cb6-5348-4530-af2b-69e8a0bcca6b}; !- HVAC Component

OS:PortList,
  {55bfa552-52fd-44a9-8c86-d808859c7557}, !- Handle
  {56634aef-a3d2-4c81-9744-d68794b896ba}, !- Name
  {9b021cb6-5348-4530-af2b-69e8a0bcca6b}; !- HVAC Component

OS:PortList,
  {c647ed35-d466-4c40-bdc2-8463d0124114}, !- Handle
  {0333ee63-ce95-46da-9414-c38b5cbfe2bf}, !- Name
  {9b021cb6-5348-4530-af2b-69e8a0bcca6b}; !- HVAC Component

OS:Sizing:Zone,
  {216afbc0-319b-4e43-bc43-8cdd2f5f659d}, !- Handle
  {9b021cb6-5348-4530-af2b-69e8a0bcca6b}, !- Zone or ZoneList Name
  SupplyAirTemperature,                   !- Zone Cooling Design Supply Air Temperature Input Method
  14,                                     !- Zone Cooling Design Supply Air Temperature {C}
  11.11,                                  !- Zone Cooling Design Supply Air Temperature Difference {deltaC}
  SupplyAirTemperature,                   !- Zone Heating Design Supply Air Temperature Input Method
  40,                                     !- Zone Heating Design Supply Air Temperature {C}
  11.11,                                  !- Zone Heating Design Supply Air Temperature Difference {deltaC}
  0.0085,                                 !- Zone Cooling Design Supply Air Humidity Ratio {kg-H2O/kg-air}
  0.008,                                  !- Zone Heating Design Supply Air Humidity Ratio {kg-H2O/kg-air}
  ,                                       !- Zone Heating Sizing Factor
  ,                                       !- Zone Cooling Sizing Factor
  DesignDay,                              !- Cooling Design Air Flow Method
  ,                                       !- Cooling Design Air Flow Rate {m3/s}
  ,                                       !- Cooling Minimum Air Flow per Zone Floor Area {m3/s-m2}
  ,                                       !- Cooling Minimum Air Flow {m3/s}
  ,                                       !- Cooling Minimum Air Flow Fraction
  DesignDay,                              !- Heating Design Air Flow Method
  ,                                       !- Heating Design Air Flow Rate {m3/s}
  ,                                       !- Heating Maximum Air Flow per Zone Floor Area {m3/s-m2}
  ,                                       !- Heating Maximum Air Flow {m3/s}
  ,                                       !- Heating Maximum Air Flow Fraction
  ,                                       !- Design Zone Air Distribution Effectiveness in Cooling Mode
  ,                                       !- Design Zone Air Distribution Effectiveness in Heating Mode
  No,                                     !- Account for Dedicated Outdoor Air System
  NeutralSupplyAir,                       !- Dedicated Outdoor Air System Control Strategy
  autosize,                               !- Dedicated Outdoor Air Low Setpoint Temperature for Design {C}
  autosize;                               !- Dedicated Outdoor Air High Setpoint Temperature for Design {C}

OS:ZoneHVAC:EquipmentList,
  {83ef9e69-d6e1-4c59-9392-2352c2d6ec78}, !- Handle
  Zone HVAC Equipment List 2,             !- Name
  {9b021cb6-5348-4530-af2b-69e8a0bcca6b}; !- Thermal Zone

OS:Space,
  {a4a793aa-03bb-4523-aafd-476bcb7f99a2}, !- Handle
  garage space,                           !- Name
  {46664db7-4ba3-40fe-b41b-e257cd7b3ce5}, !- Space Type Name
  ,                                       !- Default Construction Set Name
  ,                                       !- Default Schedule Set Name
  -0,                                     !- Direction of Relative North {deg}
  0,                                      !- X Origin {m}
  0,                                      !- Y Origin {m}
  0,                                      !- Z Origin {m}
  ,                                       !- Building Story Name
  {9b021cb6-5348-4530-af2b-69e8a0bcca6b}; !- Thermal Zone Name

OS:Surface,
  {d4a28b64-1590-4226-b2e6-3453ebfb9779}, !- Handle
  Surface 1,                              !- Name
  Floor,                                  !- Surface Type
  ,                                       !- Construction Name
  {a4a793aa-03bb-4523-aafd-476bcb7f99a2}, !- Space Name
  Foundation,                             !- Outside Boundary Condition
  ,                                       !- Outside Boundary Condition Object
  NoSun,                                  !- Sun Exposure
  NoWind,                                 !- Wind Exposure
  ,                                       !- View Factor to Ground
  ,                                       !- Number of Vertices
  8.83608947200625, 0, 0,                 !- X,Y,Z Vertex 1 {m}
  8.83608947200625, 6.096, 0,             !- X,Y,Z Vertex 2 {m}
  14.9320894720063, 6.096, 0,             !- X,Y,Z Vertex 3 {m}
  14.9320894720063, 0, 0;                 !- X,Y,Z Vertex 4 {m}

OS:Surface,
  {3457bbc7-b55e-47fe-a2fe-e763490e393c}, !- Handle
  Surface 2,                              !- Name
  Wall,                                   !- Surface Type
  ,                                       !- Construction Name
  {a4a793aa-03bb-4523-aafd-476bcb7f99a2}, !- Space Name
  Surface,                                !- Outside Boundary Condition
  {2e56a80e-69e7-4677-8e9f-84d19a3f25bb}, !- Outside Boundary Condition Object
  NoSun,                                  !- Sun Exposure
  NoWind,                                 !- Wind Exposure
  ,                                       !- View Factor to Ground
  ,                                       !- Number of Vertices
  8.83608947200625, 6.096, 2.4384,        !- X,Y,Z Vertex 1 {m}
  8.83608947200625, 6.096, 0,             !- X,Y,Z Vertex 2 {m}
  8.83608947200625, 0, 0,                 !- X,Y,Z Vertex 3 {m}
  8.83608947200625, 0, 2.4384;            !- X,Y,Z Vertex 4 {m}

OS:Surface,
  {61409ce8-cd7b-45da-9b82-f9d62bb984d2}, !- Handle
  Surface 3,                              !- Name
  Wall,                                   !- Surface Type
  ,                                       !- Construction Name
  {a4a793aa-03bb-4523-aafd-476bcb7f99a2}, !- Space Name
  Surface,                                !- Outside Boundary Condition
  {1a7a3ae8-d6fe-4690-aa18-a36909d232f2}, !- Outside Boundary Condition Object
  NoSun,                                  !- Sun Exposure
  NoWind,                                 !- Wind Exposure
  ,                                       !- View Factor to Ground
  ,                                       !- Number of Vertices
  14.9320894720063, 6.096, 2.4384,        !- X,Y,Z Vertex 1 {m}
  14.9320894720063, 6.096, 0,             !- X,Y,Z Vertex 2 {m}
  8.83608947200625, 6.096, 0,             !- X,Y,Z Vertex 3 {m}
  8.83608947200625, 6.096, 2.4384;        !- X,Y,Z Vertex 4 {m}

OS:Surface,
  {a343fe63-3ceb-4ba2-b99d-02e5cfc1dd31}, !- Handle
  Surface 4,                              !- Name
  Wall,                                   !- Surface Type
  ,                                       !- Construction Name
  {a4a793aa-03bb-4523-aafd-476bcb7f99a2}, !- Space Name
  Outdoors,                               !- Outside Boundary Condition
  ,                                       !- Outside Boundary Condition Object
  SunExposed,                             !- Sun Exposure
  WindExposed,                            !- Wind Exposure
  ,                                       !- View Factor to Ground
  ,                                       !- Number of Vertices
  14.9320894720063, 0, 2.4384,            !- X,Y,Z Vertex 1 {m}
  14.9320894720063, 0, 0,                 !- X,Y,Z Vertex 2 {m}
  14.9320894720063, 6.096, 0,             !- X,Y,Z Vertex 3 {m}
  14.9320894720063, 6.096, 2.4384;        !- X,Y,Z Vertex 4 {m}

OS:Surface,
  {d5dce556-1cd9-408b-8e28-ffe08b90bced}, !- Handle
  Surface 5,                              !- Name
  Wall,                                   !- Surface Type
  ,                                       !- Construction Name
  {a4a793aa-03bb-4523-aafd-476bcb7f99a2}, !- Space Name
  Outdoors,                               !- Outside Boundary Condition
  ,                                       !- Outside Boundary Condition Object
  SunExposed,                             !- Sun Exposure
  WindExposed,                            !- Wind Exposure
  ,                                       !- View Factor to Ground
  ,                                       !- Number of Vertices
  8.83608947200625, 0, 2.4384,            !- X,Y,Z Vertex 1 {m}
  8.83608947200625, 0, 0,                 !- X,Y,Z Vertex 2 {m}
  14.9320894720063, 0, 0,                 !- X,Y,Z Vertex 3 {m}
  14.9320894720063, 0, 2.4384;            !- X,Y,Z Vertex 4 {m}

OS:Surface,
  {2b1179e3-b46d-46e0-a546-3c4e90d1574e}, !- Handle
  Surface 6,                              !- Name
  RoofCeiling,                            !- Surface Type
  ,                                       !- Construction Name
  {a4a793aa-03bb-4523-aafd-476bcb7f99a2}, !- Space Name
  Surface,                                !- Outside Boundary Condition
  {30260965-4db3-4901-82c1-ad8e689d3ba6}, !- Outside Boundary Condition Object
  NoSun,                                  !- Sun Exposure
  NoWind,                                 !- Wind Exposure
  ,                                       !- View Factor to Ground
  ,                                       !- Number of Vertices
  14.9320894720063, 0, 2.4384,            !- X,Y,Z Vertex 1 {m}
  14.9320894720063, 6.096, 2.4384,        !- X,Y,Z Vertex 2 {m}
  8.83608947200625, 6.096, 2.4384,        !- X,Y,Z Vertex 3 {m}
  8.83608947200625, 0, 2.4384;            !- X,Y,Z Vertex 4 {m}

OS:SpaceType,
  {46664db7-4ba3-40fe-b41b-e257cd7b3ce5}, !- Handle
  Space Type 1,                           !- Name
  ,                                       !- Default Construction Set Name
  ,                                       !- Default Schedule Set Name
  ,                                       !- Group Rendering Name
  ,                                       !- Design Specification Outdoor Air Object Name
  ,                                       !- Standards Template
  ,                                       !- Standards Building Type
  garage;                                 !- Standards Space Type

OS:Space,
  {e7cf9d7c-8862-4bda-b3e8-af2dc779f5fc}, !- Handle
  living space,                           !- Name
  {04b9bdef-728d-4a38-b269-066f719b79c2}, !- Space Type Name
  ,                                       !- Default Construction Set Name
  ,                                       !- Default Schedule Set Name
  -0,                                     !- Direction of Relative North {deg}
  0,                                      !- X Origin {m}
  0,                                      !- Y Origin {m}
  0,                                      !- Z Origin {m}
  ,                                       !- Building Story Name
  {c101c3af-7302-4dfa-8610-e0306139b597}, !- Thermal Zone Name
  ,                                       !- Part of Total Floor Area
  ,                                       !- Design Specification Outdoor Air Object Name
  {056100d6-5e27-4202-b921-55303d33304b}; !- Building Unit Name

OS:Surface,
  {343ad403-72e9-4777-af67-0da601121830}, !- Handle
  Surface 7,                              !- Name
  Floor,                                  !- Surface Type
  ,                                       !- Construction Name
  {e7cf9d7c-8862-4bda-b3e8-af2dc779f5fc}, !- Space Name
  Surface,                                !- Outside Boundary Condition
  {ed5b211e-fbcf-4e42-9473-abbda9b2e6ab}, !- Outside Boundary Condition Object
  NoSun,                                  !- Sun Exposure
  NoWind,                                 !- Wind Exposure
  ,                                       !- View Factor to Ground
  ,                                       !- Number of Vertices
  0, 0, 0,                                !- X,Y,Z Vertex 1 {m}
  0, 7.46604473600313, 0,                 !- X,Y,Z Vertex 2 {m}
  14.9320894720063, 7.46604473600313, 0,  !- X,Y,Z Vertex 3 {m}
  14.9320894720063, 6.096, 0,             !- X,Y,Z Vertex 4 {m}
  8.83608947200625, 6.096, 0,             !- X,Y,Z Vertex 5 {m}
  8.83608947200625, 0, 0;                 !- X,Y,Z Vertex 6 {m}

OS:Surface,
  {d060c24b-b690-4991-bf4f-b392c9d99b9d}, !- Handle
  Surface 8,                              !- Name
  Wall,                                   !- Surface Type
  ,                                       !- Construction Name
  {e7cf9d7c-8862-4bda-b3e8-af2dc779f5fc}, !- Space Name
  Outdoors,                               !- Outside Boundary Condition
  ,                                       !- Outside Boundary Condition Object
  SunExposed,                             !- Sun Exposure
  WindExposed,                            !- Wind Exposure
  ,                                       !- View Factor to Ground
  ,                                       !- Number of Vertices
  0, 7.46604473600313, 2.4384,            !- X,Y,Z Vertex 1 {m}
  0, 7.46604473600313, 0,                 !- X,Y,Z Vertex 2 {m}
  0, 0, 0,                                !- X,Y,Z Vertex 3 {m}
  0, 0, 2.4384;                           !- X,Y,Z Vertex 4 {m}

OS:Surface,
  {eb8e8f1a-1009-4a86-935c-932856d50bc8}, !- Handle
  Surface 9,                              !- Name
  Wall,                                   !- Surface Type
  ,                                       !- Construction Name
  {e7cf9d7c-8862-4bda-b3e8-af2dc779f5fc}, !- Space Name
  Outdoors,                               !- Outside Boundary Condition
  ,                                       !- Outside Boundary Condition Object
  SunExposed,                             !- Sun Exposure
  WindExposed,                            !- Wind Exposure
  ,                                       !- View Factor to Ground
  ,                                       !- Number of Vertices
  14.9320894720063, 7.46604473600313, 2.4384, !- X,Y,Z Vertex 1 {m}
  14.9320894720063, 7.46604473600313, 0,  !- X,Y,Z Vertex 2 {m}
  0, 7.46604473600313, 0,                 !- X,Y,Z Vertex 3 {m}
  0, 7.46604473600313, 2.4384;            !- X,Y,Z Vertex 4 {m}

OS:Surface,
  {f1553371-68c1-4ce5-8a86-d0494129add8}, !- Handle
  Surface 10,                             !- Name
  Wall,                                   !- Surface Type
  ,                                       !- Construction Name
  {e7cf9d7c-8862-4bda-b3e8-af2dc779f5fc}, !- Space Name
  Outdoors,                               !- Outside Boundary Condition
  ,                                       !- Outside Boundary Condition Object
  SunExposed,                             !- Sun Exposure
  WindExposed,                            !- Wind Exposure
  ,                                       !- View Factor to Ground
  ,                                       !- Number of Vertices
  14.9320894720063, 6.096, 2.4384,        !- X,Y,Z Vertex 1 {m}
  14.9320894720063, 6.096, 0,             !- X,Y,Z Vertex 2 {m}
  14.9320894720063, 7.46604473600313, 0,  !- X,Y,Z Vertex 3 {m}
  14.9320894720063, 7.46604473600313, 2.4384; !- X,Y,Z Vertex 4 {m}

OS:Surface,
  {1a7a3ae8-d6fe-4690-aa18-a36909d232f2}, !- Handle
  Surface 11,                             !- Name
  Wall,                                   !- Surface Type
  ,                                       !- Construction Name
  {e7cf9d7c-8862-4bda-b3e8-af2dc779f5fc}, !- Space Name
  Surface,                                !- Outside Boundary Condition
  {61409ce8-cd7b-45da-9b82-f9d62bb984d2}, !- Outside Boundary Condition Object
  NoSun,                                  !- Sun Exposure
  NoWind,                                 !- Wind Exposure
  ,                                       !- View Factor to Ground
  ,                                       !- Number of Vertices
  8.83608947200625, 6.096, 2.4384,        !- X,Y,Z Vertex 1 {m}
  8.83608947200625, 6.096, 0,             !- X,Y,Z Vertex 2 {m}
  14.9320894720063, 6.096, 0,             !- X,Y,Z Vertex 3 {m}
  14.9320894720063, 6.096, 2.4384;        !- X,Y,Z Vertex 4 {m}

OS:Surface,
  {2e56a80e-69e7-4677-8e9f-84d19a3f25bb}, !- Handle
  Surface 12,                             !- Name
  Wall,                                   !- Surface Type
  ,                                       !- Construction Name
  {e7cf9d7c-8862-4bda-b3e8-af2dc779f5fc}, !- Space Name
  Surface,                                !- Outside Boundary Condition
  {3457bbc7-b55e-47fe-a2fe-e763490e393c}, !- Outside Boundary Condition Object
  NoSun,                                  !- Sun Exposure
  NoWind,                                 !- Wind Exposure
  ,                                       !- View Factor to Ground
  ,                                       !- Number of Vertices
  8.83608947200625, 0, 2.4384,            !- X,Y,Z Vertex 1 {m}
  8.83608947200625, 0, 0,                 !- X,Y,Z Vertex 2 {m}
  8.83608947200625, 6.096, 0,             !- X,Y,Z Vertex 3 {m}
  8.83608947200625, 6.096, 2.4384;        !- X,Y,Z Vertex 4 {m}

OS:Surface,
  {a8f4c095-20e0-4248-9070-e05b94b88031}, !- Handle
  Surface 13,                             !- Name
  Wall,                                   !- Surface Type
  ,                                       !- Construction Name
  {e7cf9d7c-8862-4bda-b3e8-af2dc779f5fc}, !- Space Name
  Outdoors,                               !- Outside Boundary Condition
  ,                                       !- Outside Boundary Condition Object
  SunExposed,                             !- Sun Exposure
  WindExposed,                            !- Wind Exposure
  ,                                       !- View Factor to Ground
  ,                                       !- Number of Vertices
  0, 0, 2.4384,                           !- X,Y,Z Vertex 1 {m}
  0, 0, 0,                                !- X,Y,Z Vertex 2 {m}
  8.83608947200625, 0, 0,                 !- X,Y,Z Vertex 3 {m}
  8.83608947200625, 0, 2.4384;            !- X,Y,Z Vertex 4 {m}

OS:Surface,
  {25d7f86b-dd4b-45f1-8283-23a85d5bf5ae}, !- Handle
  Surface 14,                             !- Name
  RoofCeiling,                            !- Surface Type
  ,                                       !- Construction Name
  {e7cf9d7c-8862-4bda-b3e8-af2dc779f5fc}, !- Space Name
  Surface,                                !- Outside Boundary Condition
  {652298ad-c0dd-4d09-9663-fbb4e765cc42}, !- Outside Boundary Condition Object
  NoSun,                                  !- Sun Exposure
  NoWind,                                 !- Wind Exposure
  ,                                       !- View Factor to Ground
  ,                                       !- Number of Vertices
  8.83608947200625, 0, 2.4384,            !- X,Y,Z Vertex 1 {m}
  8.83608947200625, 6.096, 2.4384,        !- X,Y,Z Vertex 2 {m}
  14.9320894720063, 6.096, 2.4384,        !- X,Y,Z Vertex 3 {m}
  14.9320894720063, 7.46604473600313, 2.4384, !- X,Y,Z Vertex 4 {m}
  0, 7.46604473600313, 2.4384,            !- X,Y,Z Vertex 5 {m}
  0, 0, 2.4384;                           !- X,Y,Z Vertex 6 {m}

OS:SpaceType,
  {04b9bdef-728d-4a38-b269-066f719b79c2}, !- Handle
  Space Type 2,                           !- Name
  ,                                       !- Default Construction Set Name
  ,                                       !- Default Schedule Set Name
  ,                                       !- Group Rendering Name
  ,                                       !- Design Specification Outdoor Air Object Name
  ,                                       !- Standards Template
  ,                                       !- Standards Building Type
  living;                                 !- Standards Space Type

OS:Space,
  {1f65327e-f12b-4775-ba8b-b7edb7c06339}, !- Handle
  living space|story 2,                   !- Name
  {04b9bdef-728d-4a38-b269-066f719b79c2}, !- Space Type Name
  ,                                       !- Default Construction Set Name
  ,                                       !- Default Schedule Set Name
  -0,                                     !- Direction of Relative North {deg}
  0,                                      !- X Origin {m}
  0,                                      !- Y Origin {m}