!- NOTE: Auto-generated from /test/osw_files/SFD_2000sqft_2story_SL_GRG_UA_Doors_OneConstruction.osw

OS:Version,
  {be853f72-e19b-44c0-9539-6978d1fa068f}, !- Handle
  2.8.0;                                  !- Version Identifier

OS:SimulationControl,
  {fec47948-1afb-4f01-832d-5e5139c4dfdf}, !- Handle
  ,                                       !- Do Zone Sizing Calculation
  ,                                       !- Do System Sizing Calculation
  ,                                       !- Do Plant Sizing Calculation
  No;                                     !- Run Simulation for Sizing Periods

OS:Timestep,
  {3d4873bb-c283-460e-94d1-d2dc853eecf6}, !- Handle
  6;                                      !- Number of Timesteps per Hour

OS:ShadowCalculation,
  {dbb1abf6-a788-4e42-af2e-c7cf74c3e6ba}, !- Handle
  20,                                     !- Calculation Frequency
  200;                                    !- Maximum Figures in Shadow Overlap Calculations

OS:SurfaceConvectionAlgorithm:Outside,
  {56692108-8b6e-4d46-847f-6ebf3b55f971}, !- Handle
  DOE-2;                                  !- Algorithm

OS:SurfaceConvectionAlgorithm:Inside,
  {bcec6817-9408-4241-bd49-324fe4e6f33c}, !- Handle
  TARP;                                   !- Algorithm

OS:ZoneCapacitanceMultiplier:ResearchSpecial,
  {d29825d4-2328-48fa-abd1-be22b3bcbeb7}, !- Handle
  ,                                       !- Temperature Capacity Multiplier
  15,                                     !- Humidity Capacity Multiplier
  ;                                       !- Carbon Dioxide Capacity Multiplier

OS:RunPeriod,
  {b71238b8-3c07-476b-92df-dd39f6cfe941}, !- Handle
  Run Period 1,                           !- Name
  1,                                      !- Begin Month
  1,                                      !- Begin Day of Month
  12,                                     !- End Month
  31,                                     !- End Day of Month
  ,                                       !- Use Weather File Holidays and Special Days
  ,                                       !- Use Weather File Daylight Saving Period
  ,                                       !- Apply Weekend Holiday Rule
  ,                                       !- Use Weather File Rain Indicators
  ,                                       !- Use Weather File Snow Indicators
  ;                                       !- Number of Times Runperiod to be Repeated

OS:ThermalZone,
  {0bfdfb89-e714-4b8b-b1fa-28541247b61b}, !- Handle
  living zone,                            !- Name
  ,                                       !- Multiplier
  ,                                       !- Ceiling Height {m}
  ,                                       !- Volume {m3}
  ,                                       !- Floor Area {m2}
  ,                                       !- Zone Inside Convection Algorithm
  ,                                       !- Zone Outside Convection Algorithm
  ,                                       !- Zone Conditioning Equipment List Name
  {da08e988-6a72-4910-8ec6-ea91dfc3c68f}, !- Zone Air Inlet Port List
  {6648ea12-0108-46f9-8034-226a81230c3c}, !- Zone Air Exhaust Port List
  {687472b8-e5a6-4313-9496-ad5cfeda5932}, !- Zone Air Node Name
  {e9c9f99c-fab4-45fc-ad83-1af9060f00f0}, !- Zone Return Air Port List
  ,                                       !- Primary Daylighting Control Name
  ,                                       !- Fraction of Zone Controlled by Primary Daylighting Control
  ,                                       !- Secondary Daylighting Control Name
  ,                                       !- Fraction of Zone Controlled by Secondary Daylighting Control
  ,                                       !- Illuminance Map Name
  ,                                       !- Group Rendering Name
  ,                                       !- Thermostat Name
  No;                                     !- Use Ideal Air Loads

OS:Node,
  {8ecb5eb6-4493-4db7-b06b-8a8a1483c7de}, !- Handle
  Node 1,                                 !- Name
  {687472b8-e5a6-4313-9496-ad5cfeda5932}, !- Inlet Port
  ;                                       !- Outlet Port

OS:Connection,
  {687472b8-e5a6-4313-9496-ad5cfeda5932}, !- Handle
  {a2b5e127-ed2b-4f0b-b1e2-98b606327d49}, !- Name
  {0bfdfb89-e714-4b8b-b1fa-28541247b61b}, !- Source Object
  11,                                     !- Outlet Port
  {8ecb5eb6-4493-4db7-b06b-8a8a1483c7de}, !- Target Object
  2;                                      !- Inlet Port

OS:PortList,
  {da08e988-6a72-4910-8ec6-ea91dfc3c68f}, !- Handle
  {8a4567da-5dee-4105-8300-316027537bec}, !- Name
  {0bfdfb89-e714-4b8b-b1fa-28541247b61b}; !- HVAC Component

OS:PortList,
  {6648ea12-0108-46f9-8034-226a81230c3c}, !- Handle
  {aae0fa57-ba9c-442f-850a-e98ef9ade5bf}, !- Name
  {0bfdfb89-e714-4b8b-b1fa-28541247b61b}; !- HVAC Component

OS:PortList,
  {e9c9f99c-fab4-45fc-ad83-1af9060f00f0}, !- Handle
  {d15d5463-f1e8-49c8-8e74-e3f456c6971f}, !- Name
  {0bfdfb89-e714-4b8b-b1fa-28541247b61b}; !- HVAC Component

OS:Sizing:Zone,
  {4519af03-a649-4d20-8697-dc261ae004cf}, !- Handle
  {0bfdfb89-e714-4b8b-b1fa-28541247b61b}, !- Zone or ZoneList Name
  SupplyAirTemperature,                   !- Zone Cooling Design Supply Air Temperature Input Method
  14,                                     !- Zone Cooling Design Supply Air Temperature {C}
  11.11,                                  !- Zone Cooling Design Supply Air Temperature Difference {deltaC}
  SupplyAirTemperature,                   !- Zone Heating Design Supply Air Temperature Input Method
  40,                                     !- Zone Heating Design Supply Air Temperature {C}
  11.11,                                  !- Zone Heating Design Supply Air Temperature Difference {deltaC}
  0.0085,                                 !- Zone Cooling Design Supply Air Humidity Ratio {kg-H2O/kg-air}
  0.008,                                  !- Zone Heating Design Supply Air Humidity Ratio {kg-H2O/kg-air}
  ,                                       !- Zone Heating Sizing Factor
  ,                                       !- Zone Cooling Sizing Factor
  DesignDay,                              !- Cooling Design Air Flow Method
  ,                                       !- Cooling Design Air Flow Rate {m3/s}
  ,                                       !- Cooling Minimum Air Flow per Zone Floor Area {m3/s-m2}
  ,                                       !- Cooling Minimum Air Flow {m3/s}
  ,                                       !- Cooling Minimum Air Flow Fraction
  DesignDay,                              !- Heating Design Air Flow Method
  ,                                       !- Heating Design Air Flow Rate {m3/s}
  ,                                       !- Heating Maximum Air Flow per Zone Floor Area {m3/s-m2}
  ,                                       !- Heating Maximum Air Flow {m3/s}
  ,                                       !- Heating Maximum Air Flow Fraction
  ,                                       !- Design Zone Air Distribution Effectiveness in Cooling Mode
  ,                                       !- Design Zone Air Distribution Effectiveness in Heating Mode
  No,                                     !- Account for Dedicated Outdoor Air System
  NeutralSupplyAir,                       !- Dedicated Outdoor Air System Control Strategy
  autosize,                               !- Dedicated Outdoor Air Low Setpoint Temperature for Design {C}
  autosize;                               !- Dedicated Outdoor Air High Setpoint Temperature for Design {C}

OS:ZoneHVAC:EquipmentList,
  {32aea41d-3cfa-454a-92de-87744d4c0a07}, !- Handle
  Zone HVAC Equipment List 1,             !- Name
  {0bfdfb89-e714-4b8b-b1fa-28541247b61b}; !- Thermal Zone

OS:ThermalZone,
  {555ebc3b-c134-4634-9ce5-f1174dbc9491}, !- Handle
  garage zone,                            !- Name
  ,                                       !- Multiplier
  ,                                       !- Ceiling Height {m}
  ,                                       !- Volume {m3}
  ,                                       !- Floor Area {m2}
  ,                                       !- Zone Inside Convection Algorithm
  ,                                       !- Zone Outside Convection Algorithm
  ,                                       !- Zone Conditioning Equipment List Name
  {4cf74afe-a772-4176-89f9-85bb5041ed3a}, !- Zone Air Inlet Port List
  {a91a6c48-7103-42a5-94dc-901b83b1fa75}, !- Zone Air Exhaust Port List
  {28da896e-7114-449a-881c-c1a7d69e49cd}, !- Zone Air Node Name
  {ec89badb-20f8-4832-93ef-3b0fbc782c62}, !- Zone Return Air Port List
  ,                                       !- Primary Daylighting Control Name
  ,                                       !- Fraction of Zone Controlled by Primary Daylighting Control
  ,                                       !- Secondary Daylighting Control Name
  ,                                       !- Fraction of Zone Controlled by Secondary Daylighting Control
  ,                                       !- Illuminance Map Name
  ,                                       !- Group Rendering Name
  ,                                       !- Thermostat Name
  No;                                     !- Use Ideal Air Loads

OS:Node,
  {45b47021-88c2-465b-8de0-81c32be6dc2b}, !- Handle
  Node 2,                                 !- Name
  {28da896e-7114-449a-881c-c1a7d69e49cd}, !- Inlet Port
  ;                                       !- Outlet Port

OS:Connection,
  {28da896e-7114-449a-881c-c1a7d69e49cd}, !- Handle
  {6d32daf7-a24e-4871-9c81-eed35c29628a}, !- Name
  {555ebc3b-c134-4634-9ce5-f1174dbc9491}, !- Source Object
  11,                                     !- Outlet Port
  {45b47021-88c2-465b-8de0-81c32be6dc2b}, !- Target Object
  2;                                      !- Inlet Port

OS:PortList,
  {4cf74afe-a772-4176-89f9-85bb5041ed3a}, !- Handle
  {5e248279-db28-4286-9a93-07fa159e7daa}, !- Name
  {555ebc3b-c134-4634-9ce5-f1174dbc9491}; !- HVAC Component

OS:PortList,
  {a91a6c48-7103-42a5-94dc-901b83b1fa75}, !- Handle
  {f5e6c1e8-cfcc-4bfb-b59b-824d0b661298}, !- Name
  {555ebc3b-c134-4634-9ce5-f1174dbc9491}; !- HVAC Component

OS:PortList,
  {ec89badb-20f8-4832-93ef-3b0fbc782c62}, !- Handle
  {724c3bcd-96c1-4580-b78d-3fe1d99815ea}, !- Name
  {555ebc3b-c134-4634-9ce5-f1174dbc9491}; !- HVAC Component

OS:Sizing:Zone,
  {be600e98-bf18-4824-bb43-e027e1cdcaa6}, !- Handle
  {555ebc3b-c134-4634-9ce5-f1174dbc9491}, !- Zone or ZoneList Name
  SupplyAirTemperature,                   !- Zone Cooling Design Supply Air Temperature Input Method
  14,                                     !- Zone Cooling Design Supply Air Temperature {C}
  11.11,                                  !- Zone Cooling Design Supply Air Temperature Difference {deltaC}
  SupplyAirTemperature,                   !- Zone Heating Design Supply Air Temperature Input Method
  40,                                     !- Zone Heating Design Supply Air Temperature {C}
  11.11,                                  !- Zone Heating Design Supply Air Temperature Difference {deltaC}
  0.0085,                                 !- Zone Cooling Design Supply Air Humidity Ratio {kg-H2O/kg-air}
  0.008,                                  !- Zone Heating Design Supply Air Humidity Ratio {kg-H2O/kg-air}
  ,                                       !- Zone Heating Sizing Factor
  ,                                       !- Zone Cooling Sizing Factor
  DesignDay,                              !- Cooling Design Air Flow Method
  ,                                       !- Cooling Design Air Flow Rate {m3/s}
  ,                                       !- Cooling Minimum Air Flow per Zone Floor Area {m3/s-m2}
  ,                                       !- Cooling Minimum Air Flow {m3/s}
  ,                                       !- Cooling Minimum Air Flow Fraction
  DesignDay,                              !- Heating Design Air Flow Method
  ,                                       !- Heating Design Air Flow Rate {m3/s}
  ,                                       !- Heating Maximum Air Flow per Zone Floor Area {m3/s-m2}
  ,                                       !- Heating Maximum Air Flow {m3/s}
  ,                                       !- Heating Maximum Air Flow Fraction
  ,                                       !- Design Zone Air Distribution Effectiveness in Cooling Mode
  ,                                       !- Design Zone Air Distribution Effectiveness in Heating Mode
  No,                                     !- Account for Dedicated Outdoor Air System
  NeutralSupplyAir,                       !- Dedicated Outdoor Air System Control Strategy
  autosize,                               !- Dedicated Outdoor Air Low Setpoint Temperature for Design {C}
  autosize;                               !- Dedicated Outdoor Air High Setpoint Temperature for Design {C}

OS:ZoneHVAC:EquipmentList,
  {1635e9f6-dc5a-4d86-a47c-ac21cd3fd3fd}, !- Handle
  Zone HVAC Equipment List 2,             !- Name
  {555ebc3b-c134-4634-9ce5-f1174dbc9491}; !- Thermal Zone

OS:Space,
  {5a312add-d669-48ce-b224-069316b832c2}, !- Handle
  garage space,                           !- Name
  {232133a5-4ff9-4987-8212-d021aaaaeacd}, !- Space Type Name
  ,                                       !- Default Construction Set Name
  ,                                       !- Default Schedule Set Name
  -0,                                     !- Direction of Relative North {deg}
  0,                                      !- X Origin {m}
  0,                                      !- Y Origin {m}
  0,                                      !- Z Origin {m}
  ,                                       !- Building Story Name
  {555ebc3b-c134-4634-9ce5-f1174dbc9491}; !- Thermal Zone Name

OS:Surface,
  {dcd35738-82cc-449e-9d7a-ac83535e3c24}, !- Handle
  Surface 1,                              !- Name
  Floor,                                  !- Surface Type
  ,                                       !- Construction Name
  {5a312add-d669-48ce-b224-069316b832c2}, !- Space Name
  Foundation,                             !- Outside Boundary Condition
  ,                                       !- Outside Boundary Condition Object
  NoSun,                                  !- Sun Exposure
  NoWind,                                 !- Wind Exposure
  ,                                       !- View Factor to Ground
  ,                                       !- Number of Vertices
  7.53507039083872, -3.048, 0,            !- X,Y,Z Vertex 1 {m}
  7.53507039083872, 3.048, 0,             !- X,Y,Z Vertex 2 {m}
  13.6310703908387, 3.048, 0,             !- X,Y,Z Vertex 3 {m}
  13.6310703908387, -3.048, 0;            !- X,Y,Z Vertex 4 {m}

OS:Surface,
  {ec72ea8c-2539-4fdb-922c-5ab223b1fe49}, !- Handle
  Surface 2,                              !- Name
  Wall,                                   !- Surface Type
  ,                                       !- Construction Name
  {5a312add-d669-48ce-b224-069316b832c2}, !- Space Name
  Surface,                                !- Outside Boundary Condition
  {cf2ee081-93c3-4ebf-b8dc-e07ed641bfdd}, !- Outside Boundary Condition Object
  NoSun,                                  !- Sun Exposure
  NoWind,                                 !- Wind Exposure
  ,                                       !- View Factor to Ground
  ,                                       !- Number of Vertices
  7.53507039083872, 3.048, 2.4384,        !- X,Y,Z Vertex 1 {m}
  7.53507039083872, 3.048, 0,             !- X,Y,Z Vertex 2 {m}
  7.53507039083872, 0, 0,                 !- X,Y,Z Vertex 3 {m}
  7.53507039083872, 0, 2.4384;            !- X,Y,Z Vertex 4 {m}

OS:Surface,
  {beaf09e1-9d65-497c-af5f-39a2bcaee10a}, !- Handle
  Surface 3,                              !- Name
  Wall,                                   !- Surface Type
  ,                                       !- Construction Name
  {5a312add-d669-48ce-b224-069316b832c2}, !- Space Name
  Surface,                                !- Outside Boundary Condition
  {1d697442-d0da-4825-9b4a-a968f3bb7980}, !- Outside Boundary Condition Object
  NoSun,                                  !- Sun Exposure
  NoWind,                                 !- Wind Exposure
  ,                                       !- View Factor to Ground
  ,                                       !- Number of Vertices
  13.6310703908387, 3.048, 2.4384,        !- X,Y,Z Vertex 1 {m}
  13.6310703908387, 3.048, 0,             !- X,Y,Z Vertex 2 {m}
  7.53507039083872, 3.048, 0,             !- X,Y,Z Vertex 3 {m}
  7.53507039083872, 3.048, 2.4384;        !- X,Y,Z Vertex 4 {m}

OS:Surface,
  {2d27c631-d1ed-4a1b-bb30-8471037290e7}, !- Handle
  Surface 4,                              !- Name
  Wall,                                   !- Surface Type
  ,                                       !- Construction Name
  {5a312add-d669-48ce-b224-069316b832c2}, !- Space Name
  Outdoors,                               !- Outside Boundary Condition
  ,                                       !- Outside Boundary Condition Object
  SunExposed,                             !- Sun Exposure
  WindExposed,                            !- Wind Exposure
  ,                                       !- View Factor to Ground
  ,                                       !- Number of Vertices
  13.6310703908387, -3.048, 2.4384,       !- X,Y,Z Vertex 1 {m}
  13.6310703908387, -3.048, 0,            !- X,Y,Z Vertex 2 {m}
  13.6310703908387, 3.048, 0,             !- X,Y,Z Vertex 3 {m}
  13.6310703908387, 3.048, 2.4384;        !- X,Y,Z Vertex 4 {m}

OS:Surface,
  {5038e7d7-cf91-48d5-ac9c-352642576187}, !- Handle
  Surface 5,                              !- Name
  Wall,                                   !- Surface Type
  ,                                       !- Construction Name
  {5a312add-d669-48ce-b224-069316b832c2}, !- Space Name
  Outdoors,                               !- Outside Boundary Condition
  ,                                       !- Outside Boundary Condition Object
  SunExposed,                             !- Sun Exposure
  WindExposed,                            !- Wind Exposure
  ,                                       !- View Factor to Ground
  ,                                       !- Number of Vertices
  7.53507039083872, -3.048, 2.4384,       !- X,Y,Z Vertex 1 {m}
  7.53507039083872, -3.048, 0,            !- X,Y,Z Vertex 2 {m}
  13.6310703908387, -3.048, 0,            !- X,Y,Z Vertex 3 {m}
  13.6310703908387, -3.048, 2.4384;       !- X,Y,Z Vertex 4 {m}

OS:Surface,
  {56c74e40-4ccc-494f-a6b4-c940a5a86b75}, !- Handle
  Surface 6,                              !- Name
  RoofCeiling,                            !- Surface Type
  ,                                       !- Construction Name
  {5a312add-d669-48ce-b224-069316b832c2}, !- Space Name
  Surface,                                !- Outside Boundary Condition
  {73b6d3f1-d8e4-4ac1-b117-655eb71d2a04}, !- Outside Boundary Condition Object
  NoSun,                                  !- Sun Exposure
  NoWind,                                 !- Wind Exposure
  ,                                       !- View Factor to Ground
  ,                                       !- Number of Vertices
  13.6310703908387, -3.048, 2.4384,       !- X,Y,Z Vertex 1 {m}
  13.6310703908387, 3.048, 2.4384,        !- X,Y,Z Vertex 2 {m}
  7.53507039083872, 3.048, 2.4384,        !- X,Y,Z Vertex 3 {m}
  7.53507039083872, -3.048, 2.4384;       !- X,Y,Z Vertex 4 {m}

OS:SpaceType,
  {232133a5-4ff9-4987-8212-d021aaaaeacd}, !- Handle
  Space Type 1,                           !- Name
  ,                                       !- Default Construction Set Name
  ,                                       !- Default Schedule Set Name
  ,                                       !- Group Rendering Name
  ,                                       !- Design Specification Outdoor Air Object Name
  ,                                       !- Standards Template
  ,                                       !- Standards Building Type
  garage;                                 !- Standards Space Type

OS:Space,
  {d3417cee-ce1a-4fdb-bed4-1a36faef94b4}, !- Handle
  living space,                           !- Name
  {21e125fc-49f7-478a-b2e1-a039c38c4328}, !- Space Type Name
  ,                                       !- Default Construction Set Name
  ,                                       !- Default Schedule Set Name
  -0,                                     !- Direction of Relative North {deg}
  0,                                      !- X Origin {m}
  0,                                      !- Y Origin {m}
  0,                                      !- Z Origin {m}
  ,                                       !- Building Story Name
  {0bfdfb89-e714-4b8b-b1fa-28541247b61b}, !- Thermal Zone Name
  ,                                       !- Part of Total Floor Area
  ,                                       !- Design Specification Outdoor Air Object Name
  {c5535862-33c4-4c49-9b8d-0824a23a6c81}; !- Building Unit Name

OS:Surface,
  {c4560f87-bdf6-47df-ab1f-9b410a44921a}, !- Handle
  Surface 7,                              !- Name
  Floor,                                  !- Surface Type
  ,                                       !- Construction Name
  {d3417cee-ce1a-4fdb-bed4-1a36faef94b4}, !- Space Name
  Foundation,                             !- Outside Boundary Condition
  ,                                       !- Outside Boundary Condition Object
  NoSun,                                  !- Sun Exposure
  NoWind,                                 !- Wind Exposure
  ,                                       !- View Factor to Ground
  ,                                       !- Number of Vertices
  0, 0, 0,                                !- X,Y,Z Vertex 1 {m}
  0, 6.81553519541936, 0,                 !- X,Y,Z Vertex 2 {m}
  13.6310703908387, 6.81553519541936, 0,  !- X,Y,Z Vertex 3 {m}
  13.6310703908387, 3.048, 0,             !- X,Y,Z Vertex 4 {m}
  7.53507039083872, 3.048, 0,             !- X,Y,Z Vertex 5 {m}
  7.53507039083872, 0, 0;                 !- X,Y,Z Vertex 6 {m}

OS:Surface,
  {5617e3b2-ff69-4197-b42c-55a7800ad452}, !- Handle
  Surface 8,                              !- Name
  Wall,                                   !- Surface Type
  ,                                       !- Construction Name
  {d3417cee-ce1a-4fdb-bed4-1a36faef94b4}, !- Space Name
  Outdoors,                               !- Outside Boundary Condition
  ,                                       !- Outside Boundary Condition Object
  SunExposed,                             !- Sun Exposure
  WindExposed,                            !- Wind Exposure
  ,                                       !- View Factor to Ground
  ,                                       !- Number of Vertices
  0, 6.81553519541936, 2.4384,            !- X,Y,Z Vertex 1 {m}
  0, 6.81553519541936, 0,                 !- X,Y,Z Vertex 2 {m}
  0, 0, 0,                                !- X,Y,Z Vertex 3 {m}
  0, 0, 2.4384;                           !- X,Y,Z Vertex 4 {m}

OS:Surface,
  {5a3b6e6a-1ef0-4aac-a877-f476fadd3643}, !- Handle
  Surface 9,                              !- Name
  Wall,                                   !- Surface Type
  ,                                       !- Construction Name
  {d3417cee-ce1a-4fdb-bed4-1a36faef94b4}, !- Space Name
  Outdoors,                               !- Outside Boundary Condition
  ,                                       !- Outside Boundary Condition Object
  SunExposed,                             !- Sun Exposure
  WindExposed,                            !- Wind Exposure
  ,                                       !- View Factor to Ground
  ,                                       !- Number of Vertices
  13.6310703908387, 6.81553519541936, 2.4384, !- X,Y,Z Vertex 1 {m}
  13.6310703908387, 6.81553519541936, 0,  !- X,Y,Z Vertex 2 {m}
  0, 6.81553519541936, 0,                 !- X,Y,Z Vertex 3 {m}
  0, 6.81553519541936, 2.4384;            !- X,Y,Z Vertex 4 {m}

OS:Surface,
  {1e870531-66b9-4a06-994e-492833d1fe21}, !- Handle
  Surface 10,                             !- Name
  Wall,                                   !- Surface Type
  ,                                       !- Construction Name
  {d3417cee-ce1a-4fdb-bed4-1a36faef94b4}, !- Space Name
  Outdoors,                               !- Outside Boundary Condition
  ,                                       !- Outside Boundary Condition Object
  SunExposed,                             !- Sun Exposure
  WindExposed,                            !- Wind Exposure
  ,                                       !- View Factor to Ground
  ,                                       !- Number of Vertices
  13.6310703908387, 3.048, 2.4384,        !- X,Y,Z Vertex 1 {m}
  13.6310703908387, 3.048, 0,             !- X,Y,Z Vertex 2 {m}
  13.6310703908387, 6.81553519541936, 0,  !- X,Y,Z Vertex 3 {m}
  13.6310703908387, 6.81553519541936, 2.4384; !- X,Y,Z Vertex 4 {m}

OS:Surface,
  {1d697442-d0da-4825-9b4a-a968f3bb7980}, !- Handle
  Surface 11,                             !- Name
  Wall,                                   !- Surface Type
  ,                                       !- Construction Name
  {d3417cee-ce1a-4fdb-bed4-1a36faef94b4}, !- Space Name
  Surface,                                !- Outside Boundary Condition
  {beaf09e1-9d65-497c-af5f-39a2bcaee10a}, !- Outside Boundary Condition Object
  NoSun,                                  !- Sun Exposure
  NoWind,                                 !- Wind Exposure
  ,                                       !- View Factor to Ground
  ,                                       !- Number of Vertices
  7.53507039083872, 3.048, 2.4384,        !- X,Y,Z Vertex 1 {m}
  7.53507039083872, 3.048, 0,             !- X,Y,Z Vertex 2 {m}
  13.6310703908387, 3.048, 0,             !- X,Y,Z Vertex 3 {m}
  13.6310703908387, 3.048, 2.4384;        !- X,Y,Z Vertex 4 {m}

OS:Surface,
  {cf2ee081-93c3-4ebf-b8dc-e07ed641bfdd}, !- Handle
  Surface 12,                             !- Name
  Wall,                                   !- Surface Type
  ,                                       !- Construction Name
  {d3417cee-ce1a-4fdb-bed4-1a36faef94b4}, !- Space Name
  Surface,                                !- Outside Boundary Condition
  {ec72ea8c-2539-4fdb-922c-5ab223b1fe49}, !- Outside Boundary Condition Object
  NoSun,                                  !- Sun Exposure
  NoWind,                                 !- Wind Exposure
  ,                                       !- View Factor to Ground
  ,                                       !- Number of Vertices
  7.53507039083872, 0, 2.4384,            !- X,Y,Z Vertex 1 {m}
  7.53507039083872, 0, 0,                 !- X,Y,Z Vertex 2 {m}
  7.53507039083872, 3.048, 0,             !- X,Y,Z Vertex 3 {m}
  7.53507039083872, 3.048, 2.4384;        !- X,Y,Z Vertex 4 {m}

OS:Surface,
  {8aea27bf-b192-41c7-85c6-b3d93bd84a16}, !- Handle
  Surface 13,                             !- Name
  Wall,                                   !- Surface Type
  ,                                       !- Construction Name
  {d3417cee-ce1a-4fdb-bed4-1a36faef94b4}, !- Space Name
  Outdoors,                               !- Outside Boundary Condition
  ,                                       !- Outside Boundary Condition Object
  SunExposed,                             !- Sun Exposure
  WindExposed,                            !- Wind Exposure
  ,                                       !- View Factor to Ground
  ,                                       !- Number of Vertices
  0, 0, 2.4384,                           !- X,Y,Z Vertex 1 {m}
  0, 0, 0,                                !- X,Y,Z Vertex 2 {m}
  7.53507039083872, 0, 0,                 !- X,Y,Z Vertex 3 {m}
  7.53507039083872, 0, 2.4384;            !- X,Y,Z Vertex 4 {m}

OS:Surface,
  {31874776-c8dc-49f6-b8ca-cd8c01af7a50}, !- Handle
  Surface 14,                             !- Name
  RoofCeiling,                            !- Surface Type
  ,                                       !- Construction Name
  {d3417cee-ce1a-4fdb-bed4-1a36faef94b4}, !- Space Name
  Surface,                                !- Outside Boundary Condition
  {0f1e58d3-2913-4073-b176-ca19a61339e8}, !- Outside Boundary Condition Object
  NoSun,                                  !- Sun Exposure
  NoWind,                                 !- Wind Exposure
  ,                                       !- View Factor to Ground
  ,                                       !- Number of Vertices
  7.53507039083872, 0, 2.4384,            !- X,Y,Z Vertex 1 {m}
  7.53507039083872, 3.048, 2.4384,        !- X,Y,Z Vertex 2 {m}
  13.6310703908387, 3.048, 2.4384,        !- X,Y,Z Vertex 3 {m}
  13.6310703908387, 6.81553519541936, 2.4384, !- X,Y,Z Vertex 4 {m}
  0, 6.81553519541936, 2.4384,            !- X,Y,Z Vertex 5 {m}
  0, 0, 2.4384;                           !- X,Y,Z Vertex 6 {m}

OS:SpaceType,
  {21e125fc-49f7-478a-b2e1-a039c38c4328}, !- Handle
  Space Type 2,                           !- Name
  ,                                       !- Default Construction Set Name
  ,                                       !- Default Schedule Set Name
  ,                                       !- Group Rendering Name
  ,                                       !- Design Specification Outdoor Air Object Name
  ,                                       !- Standards Template
  ,                                       !- Standards Building Type
  living;                                 !- Standards Space Type

OS:Space,
  {a5cdc440-9009-4f90-a10e-757cf1b7c907}, !- Handle
  living space|story 2,                   !- Name
  {21e125fc-49f7-478a-b2e1-a039c38c4328}, !- Space Type Name
  ,                                       !- Default Construction Set Name
  ,                                       !- Default Schedule Set Name
  -0,                                     !- Direction of Relative North {deg}
  0,                                      !- X Origin {m}
  0,                                      !- Y Origin {m}