!- NOTE: Auto-generated from /test/osw_files/SFD_2000sqft_2story_CS_GRG_UA.osw

OS:Version,
  {46d4d7cc-ec6d-4cd3-a604-55f04bd9a3d6}, !- Handle
  2.9.0;                                  !- Version Identifier

OS:SimulationControl,
  {0bf7ba06-c882-45f9-b3e1-9e57ab6266c2}, !- Handle
  ,                                       !- Do Zone Sizing Calculation
  ,                                       !- Do System Sizing Calculation
  ,                                       !- Do Plant Sizing Calculation
  No;                                     !- Run Simulation for Sizing Periods

OS:Timestep,
  {1ee00f87-515c-4475-a51c-d26cf2777edd}, !- Handle
  6;                                      !- Number of Timesteps per Hour

OS:ShadowCalculation,
  {eb171e42-b7b0-4080-8f5a-dcbcfbabaf73}, !- Handle
  20,                                     !- Calculation Frequency
  200;                                    !- Maximum Figures in Shadow Overlap Calculations

OS:SurfaceConvectionAlgorithm:Outside,
  {968c46e8-29d9-4ebd-b490-6363ad4a89ff}, !- Handle
  DOE-2;                                  !- Algorithm

OS:SurfaceConvectionAlgorithm:Inside,
  {1caad3c2-9989-47d7-b79d-1812520d0f24}, !- Handle
  TARP;                                   !- Algorithm

OS:ZoneCapacitanceMultiplier:ResearchSpecial,
  {712d0d04-55c3-4977-b7a0-e2ed264cf26d}, !- Handle
  ,                                       !- Temperature Capacity Multiplier
  15,                                     !- Humidity Capacity Multiplier
  ;                                       !- Carbon Dioxide Capacity Multiplier

OS:RunPeriod,
  {a3764424-0e76-4a4c-944e-b599bd703d17}, !- Handle
  Run Period 1,                           !- Name
  1,                                      !- Begin Month
  1,                                      !- Begin Day of Month
  12,                                     !- End Month
  31,                                     !- End Day of Month
  ,                                       !- Use Weather File Holidays and Special Days
  ,                                       !- Use Weather File Daylight Saving Period
  ,                                       !- Apply Weekend Holiday Rule
  ,                                       !- Use Weather File Rain Indicators
  ,                                       !- Use Weather File Snow Indicators
  ;                                       !- Number of Times Runperiod to be Repeated

OS:YearDescription,
  {9983fc32-8dae-44f2-b9ae-002728a33b79}, !- Handle
  2007,                                   !- Calendar Year
  ,                                       !- Day of Week for Start Day
  ;                                       !- Is Leap Year

OS:WeatherFile,
  {738e0140-16b3-4911-b695-46d452ae3bb2}, !- Handle
  Denver Intl Ap,                         !- City
  CO,                                     !- State Province Region
  USA,                                    !- Country
  TMY3,                                   !- Data Source
  725650,                                 !- WMO Number
  39.83,                                  !- Latitude {deg}
  -104.65,                                !- Longitude {deg}
  -7,                                     !- Time Zone {hr}
  1650,                                   !- Elevation {m}
  file:../weather/USA_CO_Denver.Intl.AP.725650_TMY3.epw, !- Url
  E23378AA;                               !- Checksum

OS:AdditionalProperties,
  {d2b3e13d-a1e8-425d-8109-49ca58861fbe}, !- Handle
  {738e0140-16b3-4911-b695-46d452ae3bb2}, !- Object Name
  EPWHeaderCity,                          !- Feature Name 1
  String,                                 !- Feature Data Type 1
  Denver Intl Ap,                         !- Feature Value 1
  EPWHeaderState,                         !- Feature Name 2
  String,                                 !- Feature Data Type 2
  CO,                                     !- Feature Value 2
  EPWHeaderCountry,                       !- Feature Name 3
  String,                                 !- Feature Data Type 3
  USA,                                    !- Feature Value 3
  EPWHeaderDataSource,                    !- Feature Name 4
  String,                                 !- Feature Data Type 4
  TMY3,                                   !- Feature Value 4
  EPWHeaderStation,                       !- Feature Name 5
  String,                                 !- Feature Data Type 5
  725650,                                 !- Feature Value 5
  EPWHeaderLatitude,                      !- Feature Name 6
  Double,                                 !- Feature Data Type 6
  39.829999999999998,                     !- Feature Value 6
  EPWHeaderLongitude,                     !- Feature Name 7
  Double,                                 !- Feature Data Type 7
  -104.65000000000001,                    !- Feature Value 7
  EPWHeaderTimezone,                      !- Feature Name 8
  Double,                                 !- Feature Data Type 8
  -7,                                     !- Feature Value 8
  EPWHeaderAltitude,                      !- Feature Name 9
  Double,                                 !- Feature Data Type 9
  5413.3858267716532,                     !- Feature Value 9
  EPWHeaderLocalPressure,                 !- Feature Name 10
  Double,                                 !- Feature Data Type 10
  0.81937567683596546,                    !- Feature Value 10
  EPWHeaderRecordsPerHour,                !- Feature Name 11
  Double,                                 !- Feature Data Type 11
  0,                                      !- Feature Value 11
  EPWDataAnnualAvgDrybulb,                !- Feature Name 12
  Double,                                 !- Feature Data Type 12
  51.575616438356228,                     !- Feature Value 12
  EPWDataAnnualMinDrybulb,                !- Feature Name 13
  Double,                                 !- Feature Data Type 13
  -2.9200000000000017,                    !- Feature Value 13
  EPWDataAnnualMaxDrybulb,                !- Feature Name 14
  Double,                                 !- Feature Data Type 14
  104,                                    !- Feature Value 14
  EPWDataCDD50F,                          !- Feature Name 15
  Double,                                 !- Feature Data Type 15
  3072.2925000000005,                     !- Feature Value 15
  EPWDataCDD65F,                          !- Feature Name 16
  Double,                                 !- Feature Data Type 16
  883.62000000000035,                     !- Feature Value 16
  EPWDataHDD50F,                          !- Feature Name 17
  Double,                                 !- Feature Data Type 17
  2497.1925000000001,                     !- Feature Value 17
  EPWDataHDD65F,                          !- Feature Name 18
  Double,                                 !- Feature Data Type 18
  5783.5200000000013,                     !- Feature Value 18
  EPWDataAnnualAvgWindspeed,              !- Feature Name 19
  Double,                                 !- Feature Data Type 19
  3.9165296803649667,                     !- Feature Value 19
  EPWDataMonthlyAvgDrybulbs,              !- Feature Name 20
  String,                                 !- Feature Data Type 20
  33.4191935483871&#4431.90142857142857&#4443.02620967741937&#4442.48624999999999&#4459.877741935483854&#4473.57574999999997&#4472.07975806451608&#4472.70008064516134&#4466.49200000000006&#4450.079112903225806&#4437.218250000000005&#4434.582177419354835, !- Feature Value 20
  EPWDataGroundMonthlyTemps,              !- Feature Name 21
  String,                                 !- Feature Data Type 21
  44.08306285945173&#4440.89570904991865&#4440.64045432632048&#4442.153016571250646&#4448.225111118704206&#4454.268919273837525&#4459.508577937551024&#4462.82777283423508&#4463.10975667174995&#4460.41014950381947&#4455.304105212311526&#4449.445696474514364, !- Feature Value 21
  EPWDataWSF,                             !- Feature Name 22
  Double,                                 !- Feature Data Type 22
  0.58999999999999997,                    !- Feature Value 22
  EPWDataMonthlyAvgDailyHighDrybulbs,     !- Feature Name 23
  String,                                 !- Feature Data Type 23
  47.41032258064516&#4446.58642857142857&#4455.15032258064517&#4453.708&#4472.80193548387098&#4488.67600000000002&#4486.1858064516129&#4485.87225806451613&#4482.082&#4463.18064516129033&#4448.73400000000001&#4448.87935483870968, !- Feature Value 23
  EPWDataMonthlyAvgDailyLowDrybulbs,      !- Feature Name 24
  String,                                 !- Feature Data Type 24
  19.347741935483874&#4419.856428571428573&#4430.316129032258065&#4431.112&#4447.41612903225806&#4457.901999999999994&#4459.063870967741934&#4460.956774193548384&#4452.352000000000004&#4438.41612903225806&#4427.002000000000002&#4423.02903225806451, !- Feature Value 24
  EPWDesignHeatingDrybulb,                !- Feature Name 25
  Double,                                 !- Feature Data Type 25
  12.02,                                  !- Feature Value 25
  EPWDesignHeatingWindspeed,              !- Feature Name 26
  Double,                                 !- Feature Data Type 26
  2.8062500000000004,                     !- Feature Value 26
  EPWDesignCoolingDrybulb,                !- Feature Name 27
  Double,                                 !- Feature Data Type 27
  91.939999999999998,                     !- Feature Value 27
  EPWDesignCoolingWetbulb,                !- Feature Name 28
  Double,                                 !- Feature Data Type 28
  59.95131430195849,                      !- Feature Value 28
  EPWDesignCoolingHumidityRatio,          !- Feature Name 29
  Double,                                 !- Feature Data Type 29
  0.0059161086834698092,                  !- Feature Value 29
  EPWDesignCoolingWindspeed,              !- Feature Name 30
  Double,                                 !- Feature Data Type 30
  3.7999999999999989,                     !- Feature Value 30
  EPWDesignDailyTemperatureRange,         !- Feature Name 31
  Double,                                 !- Feature Data Type 31
  24.915483870967748,                     !- Feature Value 31
  EPWDesignDehumidDrybulb,                !- Feature Name 32
  Double,                                 !- Feature Data Type 32
  67.996785714285721,                     !- Feature Value 32
  EPWDesignDehumidHumidityRatio,          !- Feature Name 33
  Double,                                 !- Feature Data Type 33
  0.012133744170488724,                   !- Feature Value 33
  EPWDesignCoolingDirectNormal,           !- Feature Name 34
  Double,                                 !- Feature Data Type 34
  985,                                    !- Feature Value 34
  EPWDesignCoolingDiffuseHorizontal,      !- Feature Name 35
  Double,                                 !- Feature Data Type 35
  84;                                     !- Feature Value 35

OS:Site,
  {e3c0f98a-4f20-49d8-9d9c-700f84ce2208}, !- Handle
  Denver Intl Ap_CO_USA,                  !- Name
  39.83,                                  !- Latitude {deg}
  -104.65,                                !- Longitude {deg}
  -7,                                     !- Time Zone {hr}
  1650,                                   !- Elevation {m}
  ;                                       !- Terrain

OS:ClimateZones,
  {3e8749a5-4175-468b-86c8-267a3d02db7e}, !- Handle
  ,                                       !- Active Institution
  ,                                       !- Active Year
  ,                                       !- Climate Zone Institution Name 1
  ,                                       !- Climate Zone Document Name 1
  ,                                       !- Climate Zone Document Year 1
  ,                                       !- Climate Zone Value 1
  Building America,                       !- Climate Zone Institution Name 2
  ,                                       !- Climate Zone Document Name 2
  0,                                      !- Climate Zone Document Year 2
  Cold;                                   !- Climate Zone Value 2

OS:Site:WaterMainsTemperature,
  {2a418fca-92f9-4dd3-8ccc-b44ee6fe5cf7}, !- Handle
  Correlation,                            !- Calculation Method
  ,                                       !- Temperature Schedule Name
  10.8753424657535,                       !- Annual Average Outdoor Air Temperature {C}
  23.1524007936508;                       !- Maximum Difference In Monthly Average Outdoor Air Temperatures {deltaC}

OS:RunPeriodControl:DaylightSavingTime,
  {35f99a52-b113-4764-994b-08a7277acf4d}, !- Handle
  4/7,                                    !- Start Date
  10/26;                                  !- End Date

OS:Site:GroundTemperature:Deep,
  {5c8445ad-9233-45e4-9231-8be95e5c95c4}, !- Handle
  10.8753424657535,                       !- January Deep Ground Temperature {C}
  10.8753424657535,                       !- February Deep Ground Temperature {C}
  10.8753424657535,                       !- March Deep Ground Temperature {C}
  10.8753424657535,                       !- April Deep Ground Temperature {C}
  10.8753424657535,                       !- May Deep Ground Temperature {C}
  10.8753424657535,                       !- June Deep Ground Temperature {C}
  10.8753424657535,                       !- July Deep Ground Temperature {C}
  10.8753424657535,                       !- August Deep Ground Temperature {C}
  10.8753424657535,                       !- September Deep Ground Temperature {C}
  10.8753424657535,                       !- October Deep Ground Temperature {C}
  10.8753424657535,                       !- November Deep Ground Temperature {C}
  10.8753424657535;                       !- December Deep Ground Temperature {C}

OS:Building,
  {39cca78a-aed5-4745-b07d-50ccfb06184f}, !- Handle
  Building 1,                             !- Name
  ,                                       !- Building Sector Type
  0,                                      !- North Axis {deg}
  ,                                       !- Nominal Floor to Floor Height {m}
  ,                                       !- Space Type Name
  ,                                       !- Default Construction Set Name
  ,                                       !- Default Schedule Set Name
  2,                                      !- Standards Number of Stories
  2,                                      !- Standards Number of Above Ground Stories
  ,                                       !- Standards Template
  singlefamilydetached,                   !- Standards Building Type
  1;                                      !- Standards Number of Living Units

OS:AdditionalProperties,
  {851aef1e-035a-4a6b-bc8f-a645a89e0b18}, !- Handle
  {39cca78a-aed5-4745-b07d-50ccfb06184f}, !- Object Name
  Total Units Modeled,                    !- Feature Name 1
  Integer,                                !- Feature Data Type 1
  1;                                      !- Feature Value 1

OS:ThermalZone,
  {3645aa71-63a6-4f8e-8d0f-2492781ba0fe}, !- Handle
  living zone,                            !- Name
  ,                                       !- Multiplier
  ,                                       !- Ceiling Height {m}
  ,                                       !- Volume {m3}
  ,                                       !- Floor Area {m2}
  ,                                       !- Zone Inside Convection Algorithm
  ,                                       !- Zone Outside Convection Algorithm
  ,                                       !- Zone Conditioning Equipment List Name
  {f7970b01-b16f-432e-abe9-eda7dc18475d}, !- Zone Air Inlet Port List
  {a812f56e-87a4-43f4-9af3-e3a78bddca5a}, !- Zone Air Exhaust Port List
  {bfb0e99f-22ec-48df-b3c4-c0762c07787d}, !- Zone Air Node Name
  {2afcf44b-5f70-42cd-9ead-2ff81207ccbf}, !- Zone Return Air Port List
  ,                                       !- Primary Daylighting Control Name
  ,                                       !- Fraction of Zone Controlled by Primary Daylighting Control
  ,                                       !- Secondary Daylighting Control Name
  ,                                       !- Fraction of Zone Controlled by Secondary Daylighting Control
  ,                                       !- Illuminance Map Name
  ,                                       !- Group Rendering Name
  ,                                       !- Thermostat Name
  No;                                     !- Use Ideal Air Loads

OS:Node,
  {ec2b932e-764f-4d9a-87e4-940d8eeb7dfd}, !- Handle
  Node 1,                                 !- Name
  {bfb0e99f-22ec-48df-b3c4-c0762c07787d}, !- Inlet Port
  ;                                       !- Outlet Port

OS:Connection,
  {bfb0e99f-22ec-48df-b3c4-c0762c07787d}, !- Handle
  {012c0588-833e-40ba-aefc-4179442c8598}, !- Name
  {3645aa71-63a6-4f8e-8d0f-2492781ba0fe}, !- Source Object
  11,                                     !- Outlet Port
  {ec2b932e-764f-4d9a-87e4-940d8eeb7dfd}, !- Target Object
  2;                                      !- Inlet Port

OS:PortList,
  {f7970b01-b16f-432e-abe9-eda7dc18475d}, !- Handle
  {212e6bfb-069b-4f3a-acf1-8998b7ddaad3}, !- Name
  {3645aa71-63a6-4f8e-8d0f-2492781ba0fe}; !- HVAC Component

OS:PortList,
  {a812f56e-87a4-43f4-9af3-e3a78bddca5a}, !- Handle
  {61dabfd9-e961-459c-af4c-b2e74453206a}, !- Name
  {3645aa71-63a6-4f8e-8d0f-2492781ba0fe}; !- HVAC Component

OS:PortList,
  {2afcf44b-5f70-42cd-9ead-2ff81207ccbf}, !- Handle
  {e9725c16-74e4-441a-b5ad-bb3d6cb6df6d}, !- Name
  {3645aa71-63a6-4f8e-8d0f-2492781ba0fe}; !- HVAC Component

OS:Sizing:Zone,
  {f24ed745-c961-4cf0-b8bb-5fda455d495a}, !- Handle
  {3645aa71-63a6-4f8e-8d0f-2492781ba0fe}, !- Zone or ZoneList Name
  SupplyAirTemperature,                   !- Zone Cooling Design Supply Air Temperature Input Method
  14,                                     !- Zone Cooling Design Supply Air Temperature {C}
  11.11,                                  !- Zone Cooling Design Supply Air Temperature Difference {deltaC}
  SupplyAirTemperature,                   !- Zone Heating Design Supply Air Temperature Input Method
  40,                                     !- Zone Heating Design Supply Air Temperature {C}
  11.11,                                  !- Zone Heating Design Supply Air Temperature Difference {deltaC}
  0.0085,                                 !- Zone Cooling Design Supply Air Humidity Ratio {kg-H2O/kg-air}
  0.008,                                  !- Zone Heating Design Supply Air Humidity Ratio {kg-H2O/kg-air}
  ,                                       !- Zone Heating Sizing Factor
  ,                                       !- Zone Cooling Sizing Factor
  DesignDay,                              !- Cooling Design Air Flow Method
  ,                                       !- Cooling Design Air Flow Rate {m3/s}
  ,                                       !- Cooling Minimum Air Flow per Zone Floor Area {m3/s-m2}
  ,                                       !- Cooling Minimum Air Flow {m3/s}
  ,                                       !- Cooling Minimum Air Flow Fraction
  DesignDay,                              !- Heating Design Air Flow Method
  ,                                       !- Heating Design Air Flow Rate {m3/s}
  ,                                       !- Heating Maximum Air Flow per Zone Floor Area {m3/s-m2}
  ,                                       !- Heating Maximum Air Flow {m3/s}
  ,                                       !- Heating Maximum Air Flow Fraction
  ,                                       !- Design Zone Air Distribution Effectiveness in Cooling Mode
  ,                                       !- Design Zone Air Distribution Effectiveness in Heating Mode
  No,                                     !- Account for Dedicated Outdoor Air System
  NeutralSupplyAir,                       !- Dedicated Outdoor Air System Control Strategy
  autosize,                               !- Dedicated Outdoor Air Low Setpoint Temperature for Design {C}
  autosize;                               !- Dedicated Outdoor Air High Setpoint Temperature for Design {C}

OS:ZoneHVAC:EquipmentList,
  {f60c0b89-91f2-4502-b6fc-44f9ac9f2570}, !- Handle
  Zone HVAC Equipment List 1,             !- Name
  {3645aa71-63a6-4f8e-8d0f-2492781ba0fe}; !- Thermal Zone

OS:ThermalZone,
  {aec3d496-1aa3-4495-adef-0ba44a4aedd5}, !- Handle
  garage zone,                            !- Name
  ,                                       !- Multiplier
  ,                                       !- Ceiling Height {m}
  ,                                       !- Volume {m3}
  ,                                       !- Floor Area {m2}
  ,                                       !- Zone Inside Convection Algorithm
  ,                                       !- Zone Outside Convection Algorithm
  ,                                       !- Zone Conditioning Equipment List Name
  {1d424103-679b-4f52-9b9a-f833a58b25cd}, !- Zone Air Inlet Port List
  {73cbce84-a4ab-4cca-ad67-31f022291187}, !- Zone Air Exhaust Port List
  {4fb29934-a3f4-4ab6-9c91-db2f970e3c9f}, !- Zone Air Node Name
  {bae57b91-85f4-48db-bba8-aa58c6eb97ea}, !- Zone Return Air Port List
  ,                                       !- Primary Daylighting Control Name
  ,                                       !- Fraction of Zone Controlled by Primary Daylighting Control
  ,                                       !- Secondary Daylighting Control Name
  ,                                       !- Fraction of Zone Controlled by Secondary Daylighting Control
  ,                                       !- Illuminance Map Name
  ,                                       !- Group Rendering Name
  ,                                       !- Thermostat Name
  No;                                     !- Use Ideal Air Loads

OS:Node,
  {874997fd-bf20-46c6-bb58-f7690122d681}, !- Handle
  Node 2,                                 !- Name
  {4fb29934-a3f4-4ab6-9c91-db2f970e3c9f}, !- Inlet Port
  ;                                       !- Outlet Port

OS:Connection,
  {4fb29934-a3f4-4ab6-9c91-db2f970e3c9f}, !- Handle
  {b9a09677-a9f5-45c8-a5de-a6dff26def91}, !- Name
  {aec3d496-1aa3-4495-adef-0ba44a4aedd5}, !- Source Object
  11,                                     !- Outlet Port
  {874997fd-bf20-46c6-bb58-f7690122d681}, !- Target Object
  2;                                      !- Inlet Port

OS:PortList,
  {1d424103-679b-4f52-9b9a-f833a58b25cd}, !- Handle
  {62b555fd-cab8-420f-b218-8672fcbd39d7}, !- Name
  {aec3d496-1aa3-4495-adef-0ba44a4aedd5}; !- HVAC Component

OS:PortList,
  {73cbce84-a4ab-4cca-ad67-31f022291187}, !- Handle
  {6823db2c-0478-4d48-9a2b-376d94f35099}, !- Name
  {aec3d496-1aa3-4495-adef-0ba44a4aedd5}; !- HVAC Component

OS:PortList,
  {bae57b91-85f4-48db-bba8-aa58c6eb97ea}, !- Handle
  {c82ec598-6122-4eeb-a12f-26034115130a}, !- Name
  {aec3d496-1aa3-4495-adef-0ba44a4aedd5}; !- HVAC Component

OS:Sizing:Zone,
  {b0f61390-2675-4e9a-b458-cec761d2a05f}, !- Handle
  {aec3d496-1aa3-4495-adef-0ba44a4aedd5}, !- Zone or ZoneList Name
  SupplyAirTemperature,                   !- Zone Cooling Design Supply Air Temperature Input Method
  14,                                     !- Zone Cooling Design Supply Air Temperature {C}
  11.11,                                  !- Zone Cooling Design Supply Air Temperature Difference {deltaC}
  SupplyAirTemperature,                   !- Zone Heating Design Supply Air Temperature Input Method
  40,                                     !- Zone Heating Design Supply Air Temperature {C}
  11.11,                                  !- Zone Heating Design Supply Air Temperature Difference {deltaC}
  0.0085,                                 !- Zone Cooling Design Supply Air Humidity Ratio {kg-H2O/kg-air}
  0.008,                                  !- Zone Heating Design Supply Air Humidity Ratio {kg-H2O/kg-air}
  ,                                       !- Zone Heating Sizing Factor
  ,                                       !- Zone Cooling Sizing Factor
  DesignDay,                              !- Cooling Design Air Flow Method
  ,                                       !- Cooling Design Air Flow Rate {m3/s}
  ,                                       !- Cooling Minimum Air Flow per Zone Floor Area {m3/s-m2}
  ,                                       !- Cooling Minimum Air Flow {m3/s}
  ,                                       !- Cooling Minimum Air Flow Fraction
  DesignDay,                              !- Heating Design Air Flow Method
  ,                                       !- Heating Design Air Flow Rate {m3/s}
  ,                                       !- Heating Maximum Air Flow per Zone Floor Area {m3/s-m2}
  ,                                       !- Heating Maximum Air Flow {m3/s}
  ,                                       !- Heating Maximum Air Flow Fraction
  ,                                       !- Design Zone Air Distribution Effectiveness in Cooling Mode
  ,                                       !- Design Zone Air Distribution Effectiveness in Heating Mode
  No,                                     !- Account for Dedicated Outdoor Air System
  NeutralSupplyAir,                       !- Dedicated Outdoor Air System Control Strategy
  autosize,                               !- Dedicated Outdoor Air Low Setpoint Temperature for Design {C}
  autosize;                               !- Dedicated Outdoor Air High Setpoint Temperature for Design {C}

OS:ZoneHVAC:EquipmentList,
  {a222fe9e-1ada-4d00-9bbc-023ec2195a43}, !- Handle
  Zone HVAC Equipment List 2,             !- Name
  {aec3d496-1aa3-4495-adef-0ba44a4aedd5}; !- Thermal Zone

OS:Space,
  {06f8e96a-d1f3-4805-8901-2f94f982f4d3}, !- Handle
  garage space,                           !- Name
  {bfb07619-8dbe-4013-9e32-df8ac70251b8}, !- Space Type Name
  ,                                       !- Default Construction Set Name
  ,                                       !- Default Schedule Set Name
  -0,                                     !- Direction of Relative North {deg}
  0,                                      !- X Origin {m}
  0,                                      !- Y Origin {m}
  0,                                      !- Z Origin {m}
  ,                                       !- Building Story Name
  {aec3d496-1aa3-4495-adef-0ba44a4aedd5}; !- Thermal Zone Name

OS:Surface,
  {35f24a19-5daa-49b7-b8b1-f6bb43dc6444}, !- Handle
  Surface 1,                              !- Name
  Floor,                                  !- Surface Type
  ,                                       !- Construction Name
  {06f8e96a-d1f3-4805-8901-2f94f982f4d3}, !- Space Name
  Foundation,                             !- Outside Boundary Condition
  ,                                       !- Outside Boundary Condition Object
  NoSun,                                  !- Sun Exposure
  NoWind,                                 !- Wind Exposure
  ,                                       !- View Factor to Ground
  ,                                       !- Number of Vertices
  8.83608947200625, 0, 0,                 !- X,Y,Z Vertex 1 {m}
  8.83608947200625, 6.096, 0,             !- X,Y,Z Vertex 2 {m}
  14.9320894720063, 6.096, 0,             !- X,Y,Z Vertex 3 {m}
  14.9320894720063, 0, 0;                 !- X,Y,Z Vertex 4 {m}

OS:Surface,
  {fb809954-11b7-4a7d-b61b-19557b2c837c}, !- Handle
  Surface 2,                              !- Name
  Wall,                                   !- Surface Type
  ,                                       !- Construction Name
  {06f8e96a-d1f3-4805-8901-2f94f982f4d3}, !- Space Name
  Surface,                                !- Outside Boundary Condition
  {b3f4daa9-c2e2-4fe5-b6a7-aeff059dbcf1}, !- Outside Boundary Condition Object
  NoSun,                                  !- Sun Exposure
  NoWind,                                 !- Wind Exposure
  ,                                       !- View Factor to Ground
  ,                                       !- Number of Vertices
  8.83608947200625, 6.096, 2.4384,        !- X,Y,Z Vertex 1 {m}
  8.83608947200625, 6.096, 0,             !- X,Y,Z Vertex 2 {m}
  8.83608947200625, 0, 0,                 !- X,Y,Z Vertex 3 {m}
  8.83608947200625, 0, 2.4384;            !- X,Y,Z Vertex 4 {m}

OS:Surface,
  {44eaeab5-a8d9-49de-8927-7d8048b599aa}, !- Handle
  Surface 3,                              !- Name
  Wall,                                   !- Surface Type
  ,                                       !- Construction Name
  {06f8e96a-d1f3-4805-8901-2f94f982f4d3}, !- Space Name
  Surface,                                !- Outside Boundary Condition
  {fc2c5ea9-44fc-4ff2-ab3b-9fd3640e1070}, !- Outside Boundary Condition Object
  NoSun,                                  !- Sun Exposure
  NoWind,                                 !- Wind Exposure
  ,                                       !- View Factor to Ground
  ,                                       !- Number of Vertices
  14.9320894720063, 6.096, 2.4384,        !- X,Y,Z Vertex 1 {m}
  14.9320894720063, 6.096, 0,             !- X,Y,Z Vertex 2 {m}
  8.83608947200625, 6.096, 0,             !- X,Y,Z Vertex 3 {m}
  8.83608947200625, 6.096, 2.4384;        !- X,Y,Z Vertex 4 {m}

OS:Surface,
  {5012d64f-7895-476c-a8f0-743b702c239d}, !- Handle
  Surface 4,                              !- Name
  Wall,                                   !- Surface Type
  ,                                       !- Construction Name
  {06f8e96a-d1f3-4805-8901-2f94f982f4d3}, !- Space Name
  Outdoors,                               !- Outside Boundary Condition
  ,                                       !- Outside Boundary Condition Object
  SunExposed,                             !- Sun Exposure
  WindExposed,                            !- Wind Exposure
  ,                                       !- View Factor to Ground
  ,                                       !- Number of Vertices
  14.9320894720063, 0, 2.4384,            !- X,Y,Z Vertex 1 {m}
  14.9320894720063, 0, 0,                 !- X,Y,Z Vertex 2 {m}