!- NOTE: Auto-generated from /test/osw_files/SFD_HVACSizing_Load_1story_S_UA_Vented_ExtFinDark.osw

OS:Version,
  {b54dd6e5-0baa-4ba9-99a8-60b9f25456d9}, !- Handle
  2.9.0;                                  !- Version Identifier

OS:SimulationControl,
  {37a8f33d-842f-41d4-a610-fe7790ad987d}, !- Handle
  ,                                       !- Do Zone Sizing Calculation
  ,                                       !- Do System Sizing Calculation
  ,                                       !- Do Plant Sizing Calculation
  No;                                     !- Run Simulation for Sizing Periods

OS:Timestep,
  {a82d3d95-c6eb-4c01-81c2-3a08147da349}, !- Handle
  6;                                      !- Number of Timesteps per Hour

OS:ShadowCalculation,
  {67f4d135-8ec6-4b42-bb9a-0e376bc66145}, !- Handle
  20,                                     !- Calculation Frequency
  200;                                    !- Maximum Figures in Shadow Overlap Calculations

OS:SurfaceConvectionAlgorithm:Outside,
  {21335920-33bc-409f-befe-65ea3e484c4d}, !- Handle
  DOE-2;                                  !- Algorithm

OS:SurfaceConvectionAlgorithm:Inside,
  {690b1bf3-9e25-44e7-a7b1-ac5a11feb403}, !- Handle
  TARP;                                   !- Algorithm

OS:ZoneCapacitanceMultiplier:ResearchSpecial,
  {71bb89c6-c103-4869-9df2-4cce3cec5393}, !- Handle
  ,                                       !- Temperature Capacity Multiplier
  15,                                     !- Humidity Capacity Multiplier
  ;                                       !- Carbon Dioxide Capacity Multiplier

OS:RunPeriod,
  {a4032368-f2aa-443e-a39d-c247b5964833}, !- Handle
  Run Period 1,                           !- Name
  1,                                      !- Begin Month
  1,                                      !- Begin Day of Month
  12,                                     !- End Month
  31,                                     !- End Day of Month
  ,                                       !- Use Weather File Holidays and Special Days
  ,                                       !- Use Weather File Daylight Saving Period
  ,                                       !- Apply Weekend Holiday Rule
  ,                                       !- Use Weather File Rain Indicators
  ,                                       !- Use Weather File Snow Indicators
  ;                                       !- Number of Times Runperiod to be Repeated

OS:YearDescription,
  {bf4a7df6-6005-476b-970c-a08a11987809}, !- Handle
  2007,                                   !- Calendar Year
  ,                                       !- Day of Week for Start Day
  ;                                       !- Is Leap Year

OS:WeatherFile,
  {86cf62d2-13f0-4a23-97d8-666d6783e28a}, !- Handle
  Denver Intl Ap,                         !- City
  CO,                                     !- State Province Region
  USA,                                    !- Country
  TMY3,                                   !- Data Source
  725650,                                 !- WMO Number
  39.83,                                  !- Latitude {deg}
  -104.65,                                !- Longitude {deg}
  -7,                                     !- Time Zone {hr}
  1650,                                   !- Elevation {m}
  file:../weather/USA_CO_Denver.Intl.AP.725650_TMY3.epw, !- Url
  E23378AA;                               !- Checksum

OS:AdditionalProperties,
  {00703b68-c1ed-47da-a2af-e6e32dfebfe0}, !- Handle
  {86cf62d2-13f0-4a23-97d8-666d6783e28a}, !- Object Name
  EPWHeaderCity,                          !- Feature Name 1
  String,                                 !- Feature Data Type 1
  Denver Intl Ap,                         !- Feature Value 1
  EPWHeaderState,                         !- Feature Name 2
  String,                                 !- Feature Data Type 2
  CO,                                     !- Feature Value 2
  EPWHeaderCountry,                       !- Feature Name 3
  String,                                 !- Feature Data Type 3
  USA,                                    !- Feature Value 3
  EPWHeaderDataSource,                    !- Feature Name 4
  String,                                 !- Feature Data Type 4
  TMY3,                                   !- Feature Value 4
  EPWHeaderStation,                       !- Feature Name 5
  String,                                 !- Feature Data Type 5
  725650,                                 !- Feature Value 5
  EPWHeaderLatitude,                      !- Feature Name 6
  Double,                                 !- Feature Data Type 6
  39.829999999999998,                     !- Feature Value 6
  EPWHeaderLongitude,                     !- Feature Name 7
  Double,                                 !- Feature Data Type 7
  -104.65000000000001,                    !- Feature Value 7
  EPWHeaderTimezone,                      !- Feature Name 8
  Double,                                 !- Feature Data Type 8
  -7,                                     !- Feature Value 8
  EPWHeaderAltitude,                      !- Feature Name 9
  Double,                                 !- Feature Data Type 9
  5413.3858267716532,                     !- Feature Value 9
  EPWHeaderLocalPressure,                 !- Feature Name 10
  Double,                                 !- Feature Data Type 10
  0.81937567683596546,                    !- Feature Value 10
  EPWHeaderRecordsPerHour,                !- Feature Name 11
  Double,                                 !- Feature Data Type 11
  0,                                      !- Feature Value 11
  EPWDataAnnualAvgDrybulb,                !- Feature Name 12
  Double,                                 !- Feature Data Type 12
  51.575616438356228,                     !- Feature Value 12
  EPWDataAnnualMinDrybulb,                !- Feature Name 13
  Double,                                 !- Feature Data Type 13
  -2.9200000000000017,                    !- Feature Value 13
  EPWDataAnnualMaxDrybulb,                !- Feature Name 14
  Double,                                 !- Feature Data Type 14
  104,                                    !- Feature Value 14
  EPWDataCDD50F,                          !- Feature Name 15
  Double,                                 !- Feature Data Type 15
  3072.2925000000005,                     !- Feature Value 15
  EPWDataCDD65F,                          !- Feature Name 16
  Double,                                 !- Feature Data Type 16
  883.62000000000035,                     !- Feature Value 16
  EPWDataHDD50F,                          !- Feature Name 17
  Double,                                 !- Feature Data Type 17
  2497.1925000000001,                     !- Feature Value 17
  EPWDataHDD65F,                          !- Feature Name 18
  Double,                                 !- Feature Data Type 18
  5783.5200000000013,                     !- Feature Value 18
  EPWDataAnnualAvgWindspeed,              !- Feature Name 19
  Double,                                 !- Feature Data Type 19
  3.9165296803649667,                     !- Feature Value 19
  EPWDataMonthlyAvgDrybulbs,              !- Feature Name 20
  String,                                 !- Feature Data Type 20
  33.4191935483871&#4431.90142857142857&#4443.02620967741937&#4442.48624999999999&#4459.877741935483854&#4473.57574999999997&#4472.07975806451608&#4472.70008064516134&#4466.49200000000006&#4450.079112903225806&#4437.218250000000005&#4434.582177419354835, !- Feature Value 20
  EPWDataGroundMonthlyTemps,              !- Feature Name 21
  String,                                 !- Feature Data Type 21
  44.08306285945173&#4440.89570904991865&#4440.64045432632048&#4442.153016571250646&#4448.225111118704206&#4454.268919273837525&#4459.508577937551024&#4462.82777283423508&#4463.10975667174995&#4460.41014950381947&#4455.304105212311526&#4449.445696474514364, !- Feature Value 21
  EPWDataWSF,                             !- Feature Name 22
  Double,                                 !- Feature Data Type 22
  0.58999999999999997,                    !- Feature Value 22
  EPWDataMonthlyAvgDailyHighDrybulbs,     !- Feature Name 23
  String,                                 !- Feature Data Type 23
  47.41032258064516&#4446.58642857142857&#4455.15032258064517&#4453.708&#4472.80193548387098&#4488.67600000000002&#4486.1858064516129&#4485.87225806451613&#4482.082&#4463.18064516129033&#4448.73400000000001&#4448.87935483870968, !- Feature Value 23
  EPWDataMonthlyAvgDailyLowDrybulbs,      !- Feature Name 24
  String,                                 !- Feature Data Type 24
  19.347741935483874&#4419.856428571428573&#4430.316129032258065&#4431.112&#4447.41612903225806&#4457.901999999999994&#4459.063870967741934&#4460.956774193548384&#4452.352000000000004&#4438.41612903225806&#4427.002000000000002&#4423.02903225806451, !- Feature Value 24
  EPWDesignHeatingDrybulb,                !- Feature Name 25
  Double,                                 !- Feature Data Type 25
  12.02,                                  !- Feature Value 25
  EPWDesignHeatingWindspeed,              !- Feature Name 26
  Double,                                 !- Feature Data Type 26
  2.8062500000000004,                     !- Feature Value 26
  EPWDesignCoolingDrybulb,                !- Feature Name 27
  Double,                                 !- Feature Data Type 27
  91.939999999999998,                     !- Feature Value 27
  EPWDesignCoolingWetbulb,                !- Feature Name 28
  Double,                                 !- Feature Data Type 28
  59.95131430195849,                      !- Feature Value 28
  EPWDesignCoolingHumidityRatio,          !- Feature Name 29
  Double,                                 !- Feature Data Type 29
  0.0059161086834698092,                  !- Feature Value 29
  EPWDesignCoolingWindspeed,              !- Feature Name 30
  Double,                                 !- Feature Data Type 30
  3.7999999999999989,                     !- Feature Value 30
  EPWDesignDailyTemperatureRange,         !- Feature Name 31
  Double,                                 !- Feature Data Type 31
  24.915483870967748,                     !- Feature Value 31
  EPWDesignDehumidDrybulb,                !- Feature Name 32
  Double,                                 !- Feature Data Type 32
  67.996785714285721,                     !- Feature Value 32
  EPWDesignDehumidHumidityRatio,          !- Feature Name 33
  Double,                                 !- Feature Data Type 33
  0.012133744170488724,                   !- Feature Value 33
  EPWDesignCoolingDirectNormal,           !- Feature Name 34
  Double,                                 !- Feature Data Type 34
  985,                                    !- Feature Value 34
  EPWDesignCoolingDiffuseHorizontal,      !- Feature Name 35
  Double,                                 !- Feature Data Type 35
  84;                                     !- Feature Value 35

OS:Site,
  {22592b6c-9018-4589-a03c-0564fa7e992f}, !- Handle
  Denver Intl Ap_CO_USA,                  !- Name
  39.83,                                  !- Latitude {deg}
  -104.65,                                !- Longitude {deg}
  -7,                                     !- Time Zone {hr}
  1650,                                   !- Elevation {m}
  Suburbs;                                !- Terrain

OS:ClimateZones,
  {9290613c-1b1f-442e-bcd7-5e509f2db1ce}, !- Handle
  ,                                       !- Active Institution
  ,                                       !- Active Year
  ,                                       !- Climate Zone Institution Name 1
  ,                                       !- Climate Zone Document Name 1
  ,                                       !- Climate Zone Document Year 1
  ,                                       !- Climate Zone Value 1
  Building America,                       !- Climate Zone Institution Name 2
  ,                                       !- Climate Zone Document Name 2
  0,                                      !- Climate Zone Document Year 2
  Cold;                                   !- Climate Zone Value 2

OS:Site:WaterMainsTemperature,
  {51c14972-9906-4666-9d8c-ece866b7b7ea}, !- Handle
  Correlation,                            !- Calculation Method
  ,                                       !- Temperature Schedule Name
  10.8753424657535,                       !- Annual Average Outdoor Air Temperature {C}
  23.1524007936508;                       !- Maximum Difference In Monthly Average Outdoor Air Temperatures {deltaC}

OS:RunPeriodControl:DaylightSavingTime,
  {ec5989ed-7e28-4cc4-a03d-3d842c85d90b}, !- Handle
  3/12,                                   !- Start Date
  11/5;                                   !- End Date

OS:Site:GroundTemperature:Deep,
  {da09c45e-aed6-48db-a155-4c3a219d5189}, !- Handle
  10.8753424657535,                       !- January Deep Ground Temperature {C}
  10.8753424657535,                       !- February Deep Ground Temperature {C}
  10.8753424657535,                       !- March Deep Ground Temperature {C}
  10.8753424657535,                       !- April Deep Ground Temperature {C}
  10.8753424657535,                       !- May Deep Ground Temperature {C}
  10.8753424657535,                       !- June Deep Ground Temperature {C}
  10.8753424657535,                       !- July Deep Ground Temperature {C}
  10.8753424657535,                       !- August Deep Ground Temperature {C}
  10.8753424657535,                       !- September Deep Ground Temperature {C}
  10.8753424657535,                       !- October Deep Ground Temperature {C}
  10.8753424657535,                       !- November Deep Ground Temperature {C}
  10.8753424657535;                       !- December Deep Ground Temperature {C}

OS:Building,
  {e06ee638-6513-4121-98a1-1bdaa2143e78}, !- Handle
  Building 1,                             !- Name
  ,                                       !- Building Sector Type
  22.5,                                   !- North Axis {deg}
  ,                                       !- Nominal Floor to Floor Height {m}
  ,                                       !- Space Type Name
  ,                                       !- Default Construction Set Name
  ,                                       !- Default Schedule Set Name
  1,                                      !- Standards Number of Stories
  1,                                      !- Standards Number of Above Ground Stories
  ,                                       !- Standards Template
  singlefamilydetached,                   !- Standards Building Type
  1;                                      !- Standards Number of Living Units

OS:AdditionalProperties,
  {1056b6e2-5300-4cf1-8f44-6e0e7f602d71}, !- Handle
  {e06ee638-6513-4121-98a1-1bdaa2143e78}, !- Object Name
  Total Units Modeled,                    !- Feature Name 1
  Integer,                                !- Feature Data Type 1
  1,                                      !- Feature Value 1
  has_water_heater_flue,                  !- Feature Name 2
  Boolean,                                !- Feature Data Type 2
  true;                                   !- Feature Value 2

OS:ThermalZone,
  {da24f5ac-e0f5-4136-a32e-eb415cca14bc}, !- Handle
  living zone,                            !- Name
  ,                                       !- Multiplier
  ,                                       !- Ceiling Height {m}
  ,                                       !- Volume {m3}
  ,                                       !- Floor Area {m2}
  ,                                       !- Zone Inside Convection Algorithm
  ,                                       !- Zone Outside Convection Algorithm
  ,                                       !- Zone Conditioning Equipment List Name
  {70e97eda-b90e-4267-8011-9916dec7607c}, !- Zone Air Inlet Port List
  {09822098-ba19-4fd4-9517-1836f2b219dd}, !- Zone Air Exhaust Port List
  {22efd0d5-3f03-446e-ac88-2e8ef197d6c1}, !- Zone Air Node Name
  {057cc081-c7f4-4ea4-ab1b-77abcdb8995b}, !- Zone Return Air Port List
  ,                                       !- Primary Daylighting Control Name
  ,                                       !- Fraction of Zone Controlled by Primary Daylighting Control
  ,                                       !- Secondary Daylighting Control Name
  ,                                       !- Fraction of Zone Controlled by Secondary Daylighting Control
  ,                                       !- Illuminance Map Name
  ,                                       !- Group Rendering Name
  ,                                       !- Thermostat Name
  No;                                     !- Use Ideal Air Loads

OS:Node,
  {5d3f69e1-4348-4594-a69d-0015952e55ab}, !- Handle
  Node 1,                                 !- Name
  {22efd0d5-3f03-446e-ac88-2e8ef197d6c1}, !- Inlet Port
  ;                                       !- Outlet Port

OS:Connection,
  {22efd0d5-3f03-446e-ac88-2e8ef197d6c1}, !- Handle
  {5520acc0-d9c3-4bbf-a293-2aa9ccdca173}, !- Name
  {da24f5ac-e0f5-4136-a32e-eb415cca14bc}, !- Source Object
  11,                                     !- Outlet Port
  {5d3f69e1-4348-4594-a69d-0015952e55ab}, !- Target Object
  2;                                      !- Inlet Port

OS:PortList,
  {70e97eda-b90e-4267-8011-9916dec7607c}, !- Handle
  {cb0c350d-34fc-4864-ad3f-14244067ada4}, !- Name
  {da24f5ac-e0f5-4136-a32e-eb415cca14bc}; !- HVAC Component

OS:PortList,
  {09822098-ba19-4fd4-9517-1836f2b219dd}, !- Handle
  {2891971b-4b57-44e3-8a73-c942ca3ef20f}, !- Name
  {da24f5ac-e0f5-4136-a32e-eb415cca14bc}; !- HVAC Component

OS:PortList,
  {057cc081-c7f4-4ea4-ab1b-77abcdb8995b}, !- Handle
  {755b24f3-d60f-40fc-8786-72d53d45f568}, !- Name
  {da24f5ac-e0f5-4136-a32e-eb415cca14bc}; !- HVAC Component

OS:Sizing:Zone,
  {1149980b-043b-4fc9-b20c-3cda31fac694}, !- Handle
  {da24f5ac-e0f5-4136-a32e-eb415cca14bc}, !- Zone or ZoneList Name
  SupplyAirTemperature,                   !- Zone Cooling Design Supply Air Temperature Input Method
  14,                                     !- Zone Cooling Design Supply Air Temperature {C}
  11.11,                                  !- Zone Cooling Design Supply Air Temperature Difference {deltaC}
  SupplyAirTemperature,                   !- Zone Heating Design Supply Air Temperature Input Method
  40,                                     !- Zone Heating Design Supply Air Temperature {C}
  11.11,                                  !- Zone Heating Design Supply Air Temperature Difference {deltaC}
  0.0085,                                 !- Zone Cooling Design Supply Air Humidity Ratio {kg-H2O/kg-air}
  0.008,                                  !- Zone Heating Design Supply Air Humidity Ratio {kg-H2O/kg-air}
  ,                                       !- Zone Heating Sizing Factor
  ,                                       !- Zone Cooling Sizing Factor
  DesignDay,                              !- Cooling Design Air Flow Method
  ,                                       !- Cooling Design Air Flow Rate {m3/s}
  ,                                       !- Cooling Minimum Air Flow per Zone Floor Area {m3/s-m2}
  ,                                       !- Cooling Minimum Air Flow {m3/s}
  ,                                       !- Cooling Minimum Air Flow Fraction
  DesignDay,                              !- Heating Design Air Flow Method
  ,                                       !- Heating Design Air Flow Rate {m3/s}
  ,                                       !- Heating Maximum Air Flow per Zone Floor Area {m3/s-m2}
  ,                                       !- Heating Maximum Air Flow {m3/s}
  ,                                       !- Heating Maximum Air Flow Fraction
  ,                                       !- Design Zone Air Distribution Effectiveness in Cooling Mode
  ,                                       !- Design Zone Air Distribution Effectiveness in Heating Mode
  No,                                     !- Account for Dedicated Outdoor Air System
  NeutralSupplyAir,                       !- Dedicated Outdoor Air System Control Strategy
  autosize,                               !- Dedicated Outdoor Air Low Setpoint Temperature for Design {C}
  autosize;                               !- Dedicated Outdoor Air High Setpoint Temperature for Design {C}

OS:ZoneHVAC:EquipmentList,
  {ef460d03-7f82-451e-80c6-b0fa08ee0230}, !- Handle
  Zone HVAC Equipment List 1,             !- Name
  {da24f5ac-e0f5-4136-a32e-eb415cca14bc}; !- Thermal Zone

OS:Space,
  {edd33cb8-6922-4313-8adb-6d187286bc1c}, !- Handle
  living space,                           !- Name
  {f27d96a6-9a9d-4cb1-8268-f89723345761}, !- Space Type Name
  ,                                       !- Default Construction Set Name
  ,                                       !- Default Schedule Set Name
  -0,                                     !- Direction of Relative North {deg}
  0,                                      !- X Origin {m}
  0,                                      !- Y Origin {m}
  0,                                      !- Z Origin {m}
  ,                                       !- Building Story Name
  {da24f5ac-e0f5-4136-a32e-eb415cca14bc}, !- Thermal Zone Name
  ,                                       !- Part of Total Floor Area
  ,                                       !- Design Specification Outdoor Air Object Name
  {8f7933dc-b486-4108-a8a8-c4b2f0d31a37}; !- Building Unit Name

OS:Surface,
  {5162a9cf-4488-412f-b0ae-5dd94fb02716}, !- Handle
  Surface 1,                              !- Name
  Floor,                                  !- Surface Type
  {ab7d659c-03d8-43d5-ad9c-d9374746e2ac}, !- Construction Name
  {edd33cb8-6922-4313-8adb-6d187286bc1c}, !- Space Name
  Foundation,                             !- Outside Boundary Condition
  {287c87c8-436f-42ef-910c-197fdb92cde3}, !- Outside Boundary Condition Object
  NoSun,                                  !- Sun Exposure
  NoWind,                                 !- Wind Exposure
  ,                                       !- View Factor to Ground
  ,                                       !- Number of Vertices
  0, 0, 0,                                !- X,Y,Z Vertex 1 {m}
  0, 10.7471427258245, 0,                 !- X,Y,Z Vertex 2 {m}
  17.2888817744574, 10.7471427258245, 0,  !- X,Y,Z Vertex 3 {m}
  17.2888817744574, 0, 0;                 !- X,Y,Z Vertex 4 {m}

OS:Surface,
  {777f351e-1542-4b01-b57f-4f0c9a6fe6ff}, !- Handle
  Surface 2,                              !- Name
  Wall,                                   !- Surface Type
  {3cd170a3-09da-453c-a2af-4fe55ccd006b}, !- Construction Name
  {edd33cb8-6922-4313-8adb-6d187286bc1c}, !- Space Name
  Outdoors,                               !- Outside Boundary Condition
  ,                                       !- Outside Boundary Condition Object
  SunExposed,                             !- Sun Exposure
  WindExposed,                            !- Wind Exposure
  ,                                       !- View Factor to Ground
  ,                                       !- Number of Vertices
  0, 10.7471427258245, 2.4384,            !- X,Y,Z Vertex 1 {m}
  0, 10.7471427258245, 0,                 !- X,Y,Z Vertex 2 {m}
  0, 0, 0,                                !- X,Y,Z Vertex 3 {m}
  0, 0, 2.4384;                           !- X,Y,Z Vertex 4 {m}

OS:Surface,
  {b2ac610f-7ee7-4e5d-a001-64bbc8cec604}, !- Handle
  Surface 3,                              !- Name
  Wall,                                   !- Surface Type
  {3cd170a3-09da-453c-a2af-4fe55ccd006b}, !- Construction Name
  {edd33cb8-6922-4313-8adb-6d187286bc1c}, !- Space Name
  Outdoors,                               !- Outside Boundary Condition
  ,                                       !- Outside Boundary Condition Object
  SunExposed,                             !- Sun Exposure
  WindExposed,                            !- Wind Exposure
  ,                                       !- View Factor to Ground
  ,                                       !- Number of Vertices
  17.2888817744574, 10.7471427258245, 2.4384, !- X,Y,Z Vertex 1 {m}
  17.2888817744574, 10.7471427258245, 0,  !- X,Y,Z Vertex 2 {m}
  0, 10.7471427258245, 0,                 !- X,Y,Z Vertex 3 {m}
  0, 10.7471427258245, 2.4384;            !- X,Y,Z Vertex 4 {m}

OS:Surface,
  {f6142878-897f-4703-a7b0-41c83665fd1c}, !- Handle
  Surface 4,                              !- Name
  Wall,                                   !- Surface Type
  {3cd170a3-09da-453c-a2af-4fe55ccd006b}, !- Construction Name
  {edd33cb8-6922-4313-8adb-6d187286bc1c}, !- Space Name
  Outdoors,                               !- Outside Boundary Condition
  ,                                       !- Outside Boundary Condition Object
  SunExposed,                             !- Sun Exposure
  WindExposed,                            !- Wind Exposure
  ,                                       !- View Factor to Ground
  ,                                       !- Number of Vertices
  17.2888817744574, 0, 2.4384,            !- X,Y,Z Vertex 1 {m}
  17.2888817744574, 0, 0,                 !- X,Y,Z Vertex 2 {m}
  17.2888817744574, 10.7471427258245, 0,  !- X,Y,Z Vertex 3 {m}
  17.2888817744574, 10.7471427258245, 2.4384; !- X,Y,Z Vertex 4 {m}

OS:Surface,
  {ab153e32-fa88-43d8-a3bf-0fd90c452bca}, !- Handle
  Surface 5,                              !- Name
  Wall,                                   !- Surface Type
  {3cd170a3-09da-453c-a2af-4fe55ccd006b}, !- Construction Name
  {edd33cb8-6922-4313-8adb-6d187286bc1c}, !- Space Name
  Outdoors,                               !- Outside Boundary Condition
  ,                                       !- Outside Boundary Condition Object
  SunExposed,                             !- Sun Exposure
  WindExposed,                            !- Wind Exposure
  ,                                       !- View Factor to Ground
  ,                                       !- Number of Vertices
  17.2888817744574, 0, 0,                 !- X,Y,Z Vertex 1 {m}
  17.2888817744574, 0, 2.4384,            !- X,Y,Z Vertex 2 {m}
  1.04865714285714, 0, 2.4384,            !- X,Y,Z Vertex 3 {m}
  1.04865714285714, 0, 0;                 !- X,Y,Z Vertex 4 {m}

OS:Surface,
  {924eb5be-7ed4-4c80-b783-e3b1f5dd6379}, !- Handle
  Surface 6,                              !- Name
  RoofCeiling,                            !- Surface Type
  {1b4229d9-a72b-4e22-9a1b-cb4fcc2bccc9}, !- Construction Name
  {edd33cb8-6922-4313-8adb-6d187286bc1c}, !- Space Name
  Surface,                                !- Outside Boundary Condition
  {1bcde6d4-47f0-4743-ba31-d39a094b052e}, !- Outside Boundary Condition Object
  NoSun,                                  !- Sun Exposure
  NoWind,                                 !- Wind Exposure
  ,                                       !- View Factor to Ground
  ,                                       !- Number of Vertices
  17.2888817744574, 0, 2.4384,            !- X,Y,Z Vertex 1 {m}
  17.2888817744574, 10.7471427258245, 2.4384, !- X,Y,Z Vertex 2 {m}
  0, 10.7471427258245, 2.4384,            !- X,Y,Z Vertex 3 {m}
  0, 0, 2.4384;                           !- X,Y,Z Vertex 4 {m}

OS:SpaceType,
  {f27d96a6-9a9d-4cb1-8268-f89723345761}, !- Handle
  Space Type 1,                           !- Name
  ,                                       !- Default Construction Set Name
  ,                                       !- Default Schedule Set Name
  ,                                       !- Group Rendering Name
  ,                                       !- Design Specification Outdoor Air Object Name
  ,                                       !- Standards Template
  ,                                       !- Standards Building Type
  living;                                 !- Standards Space Type

OS:Surface,
  {1bcde6d4-47f0-4743-ba31-d39a094b052e}, !- Handle
  Surface 7,                              !- Name
  Floor,                                  !- Surface Type
  {ac6b37da-05d8-4552-841a-bc67670faf1a}, !- Construction Name
  {62bc7a57-480d-4226-acdb-ff0f07bd19ff}, !- Space Name
  Surface,                                !- Outside Boundary Condition
  {924eb5be-7ed4-4c80-b783-e3b1f5dd6379}, !- Outside Boundary Condition Object
  NoSun,                                  !- Sun Exposure
  NoWind,                                 !- Wind Exposure
  ,                                       !- View Factor to Ground
  ,                                       !- Number of Vertices
  0, 10.7471427258245, 0,                 !- X,Y,Z Vertex 1 {m}
  17.2888817744574, 10.7471427258245, 0,  !- X,Y,Z Vertex 2 {m}
  17.2888817744574, 0, 0,                 !- X,Y,Z Vertex 3 {m}
  0, 0, 0;                                !- X,Y,Z Vertex 4 {m}

OS:Surface,
  {8af68688-0a02-4c29-95ea-041e66fd29bc}, !- Handle
  Surface 8,                              !- Name
  RoofCeiling,                            !- Surface Type
  {81818354-9b43-48b0-9399-7c47cdd18c2a}, !- Construction Name
  {62bc7a57-480d-4226-acdb-ff0f07bd19ff}, !- Space Name
  Outdoors,                               !- Outside Boundary Condition
  ,                                       !- Outside Boundary Condition Object
  SunExposed,                             !- Sun Exposure
  WindExposed,                            !- Wind Exposure
  ,                                       !- View Factor to Ground
  ,                                       !- Number of Vertices
  17.2888817744574, 5.37357136291227, 2.68678568145614, !- X,Y,Z Vertex 1 {m}
  0, 5.37357136291227, 2.68678568145614,  !- X,Y,Z Vertex 2 {m}
  0, 0, 0,                                !- X,Y,Z Vertex 3 {m}
  17.2888817744574, 0, 0;                 !- X,Y,Z Vertex 4 {m}

OS:Surface,
  {1ec68910-857d-4d25-9ca3-c91496ccc7f0}, !- Handle
  Surface 9,                              !- Name
  RoofCeiling,                            !- Surface Type
  {81818354-9b43-48b0-9399-7c47cdd18c2a}, !- Construction Name
  {62bc7a57-480d-4226-acdb-ff0f07bd19ff}, !- Space Name