!- NOTE: Auto-generated from /test/osw_files/SFD_1story_FB_UA_GRG_MSHP_FuelTanklessWH.osw

OS:Version,
  {d055ebf7-ffb1-4119-9ec1-ac33c5d9deb5}, !- Handle
  2.9.1;                                  !- Version Identifier

OS:SimulationControl,
  {ca262a29-4d2b-4b27-be3a-ac60d4603837}, !- Handle
  ,                                       !- Do Zone Sizing Calculation
  ,                                       !- Do System Sizing Calculation
  ,                                       !- Do Plant Sizing Calculation
  No;                                     !- Run Simulation for Sizing Periods

OS:Timestep,
  {cba3ae53-710b-4cee-8815-65d529172718}, !- Handle
  6;                                      !- Number of Timesteps per Hour

OS:ShadowCalculation,
  {1ade2031-a529-4dbb-acab-c062d12967aa}, !- Handle
  20,                                     !- Calculation Frequency
  200;                                    !- Maximum Figures in Shadow Overlap Calculations

OS:SurfaceConvectionAlgorithm:Outside,
  {70d443d5-4d85-41c2-ae8f-ab6ba35d0498}, !- Handle
  DOE-2;                                  !- Algorithm

OS:SurfaceConvectionAlgorithm:Inside,
  {3b752b80-c99a-48db-bde0-5db1e2cb549c}, !- Handle
  TARP;                                   !- Algorithm

OS:ZoneCapacitanceMultiplier:ResearchSpecial,
  {66eec82d-0856-4dbe-affd-66b11aa951f1}, !- Handle
  ,                                       !- Temperature Capacity Multiplier
  15,                                     !- Humidity Capacity Multiplier
  ;                                       !- Carbon Dioxide Capacity Multiplier

OS:RunPeriod,
  {218ad9a6-4f4d-484a-a465-5f477b4ae878}, !- Handle
  Run Period 1,                           !- Name
  1,                                      !- Begin Month
  1,                                      !- Begin Day of Month
  12,                                     !- End Month
  31,                                     !- End Day of Month
  ,                                       !- Use Weather File Holidays and Special Days
  ,                                       !- Use Weather File Daylight Saving Period
  ,                                       !- Apply Weekend Holiday Rule
  ,                                       !- Use Weather File Rain Indicators
  ,                                       !- Use Weather File Snow Indicators
  ;                                       !- Number of Times Runperiod to be Repeated

OS:YearDescription,
  {d94702ec-0554-4431-b2bc-76970e6da461}, !- Handle
  2007,                                   !- Calendar Year
  ,                                       !- Day of Week for Start Day
  ;                                       !- Is Leap Year

OS:WeatherFile,
  {0548a707-a01a-4ef4-8fd0-7294ec22a068}, !- Handle
  Denver Intl Ap,                         !- City
  CO,                                     !- State Province Region
  USA,                                    !- Country
  TMY3,                                   !- Data Source
  725650,                                 !- WMO Number
  39.83,                                  !- Latitude {deg}
  -104.65,                                !- Longitude {deg}
  -7,                                     !- Time Zone {hr}
  1650,                                   !- Elevation {m}
  file:../weather/USA_CO_Denver.Intl.AP.725650_TMY3.epw, !- Url
  E23378AA;                               !- Checksum

OS:AdditionalProperties,
  {44fbb8df-6bfe-4ccf-a490-8efb7e508ab5}, !- Handle
  {0548a707-a01a-4ef4-8fd0-7294ec22a068}, !- Object Name
  EPWHeaderCity,                          !- Feature Name 1
  String,                                 !- Feature Data Type 1
  Denver Intl Ap,                         !- Feature Value 1
  EPWHeaderState,                         !- Feature Name 2
  String,                                 !- Feature Data Type 2
  CO,                                     !- Feature Value 2
  EPWHeaderCountry,                       !- Feature Name 3
  String,                                 !- Feature Data Type 3
  USA,                                    !- Feature Value 3
  EPWHeaderDataSource,                    !- Feature Name 4
  String,                                 !- Feature Data Type 4
  TMY3,                                   !- Feature Value 4
  EPWHeaderStation,                       !- Feature Name 5
  String,                                 !- Feature Data Type 5
  725650,                                 !- Feature Value 5
  EPWHeaderLatitude,                      !- Feature Name 6
  Double,                                 !- Feature Data Type 6
  39.829999999999998,                     !- Feature Value 6
  EPWHeaderLongitude,                     !- Feature Name 7
  Double,                                 !- Feature Data Type 7
  -104.65000000000001,                    !- Feature Value 7
  EPWHeaderTimezone,                      !- Feature Name 8
  Double,                                 !- Feature Data Type 8
  -7,                                     !- Feature Value 8
  EPWHeaderAltitude,                      !- Feature Name 9
  Double,                                 !- Feature Data Type 9
  5413.3858267716532,                     !- Feature Value 9
  EPWHeaderLocalPressure,                 !- Feature Name 10
  Double,                                 !- Feature Data Type 10
  0.81937567683596546,                    !- Feature Value 10
  EPWHeaderRecordsPerHour,                !- Feature Name 11
  Double,                                 !- Feature Data Type 11
  0,                                      !- Feature Value 11
  EPWDataAnnualAvgDrybulb,                !- Feature Name 12
  Double,                                 !- Feature Data Type 12
  51.575616438356228,                     !- Feature Value 12
  EPWDataAnnualMinDrybulb,                !- Feature Name 13
  Double,                                 !- Feature Data Type 13
  -2.9200000000000017,                    !- Feature Value 13
  EPWDataAnnualMaxDrybulb,                !- Feature Name 14
  Double,                                 !- Feature Data Type 14
  104,                                    !- Feature Value 14
  EPWDataCDD50F,                          !- Feature Name 15
  Double,                                 !- Feature Data Type 15
  3072.2925000000005,                     !- Feature Value 15
  EPWDataCDD65F,                          !- Feature Name 16
  Double,                                 !- Feature Data Type 16
  883.62000000000035,                     !- Feature Value 16
  EPWDataHDD50F,                          !- Feature Name 17
  Double,                                 !- Feature Data Type 17
  2497.1925000000001,                     !- Feature Value 17
  EPWDataHDD65F,                          !- Feature Name 18
  Double,                                 !- Feature Data Type 18
  5783.5200000000013,                     !- Feature Value 18
  EPWDataAnnualAvgWindspeed,              !- Feature Name 19
  Double,                                 !- Feature Data Type 19
  3.9165296803649667,                     !- Feature Value 19
  EPWDataMonthlyAvgDrybulbs,              !- Feature Name 20
  String,                                 !- Feature Data Type 20
  33.4191935483871&#4431.90142857142857&#4443.02620967741937&#4442.48624999999999&#4459.877741935483854&#4473.57574999999997&#4472.07975806451608&#4472.70008064516134&#4466.49200000000006&#4450.079112903225806&#4437.218250000000005&#4434.582177419354835, !- Feature Value 20
  EPWDataGroundMonthlyTemps,              !- Feature Name 21
  String,                                 !- Feature Data Type 21
  44.08306285945173&#4440.89570904991865&#4440.64045432632048&#4442.153016571250646&#4448.225111118704206&#4454.268919273837525&#4459.508577937551024&#4462.82777283423508&#4463.10975667174995&#4460.41014950381947&#4455.304105212311526&#4449.445696474514364, !- Feature Value 21
  EPWDataWSF,                             !- Feature Name 22
  Double,                                 !- Feature Data Type 22
  0.58999999999999997,                    !- Feature Value 22
  EPWDataMonthlyAvgDailyHighDrybulbs,     !- Feature Name 23
  String,                                 !- Feature Data Type 23
  47.41032258064516&#4446.58642857142857&#4455.15032258064517&#4453.708&#4472.80193548387098&#4488.67600000000002&#4486.1858064516129&#4485.87225806451613&#4482.082&#4463.18064516129033&#4448.73400000000001&#4448.87935483870968, !- Feature Value 23
  EPWDataMonthlyAvgDailyLowDrybulbs,      !- Feature Name 24
  String,                                 !- Feature Data Type 24
  19.347741935483874&#4419.856428571428573&#4430.316129032258065&#4431.112&#4447.41612903225806&#4457.901999999999994&#4459.063870967741934&#4460.956774193548384&#4452.352000000000004&#4438.41612903225806&#4427.002000000000002&#4423.02903225806451, !- Feature Value 24
  EPWDesignHeatingDrybulb,                !- Feature Name 25
  Double,                                 !- Feature Data Type 25
  12.02,                                  !- Feature Value 25
  EPWDesignHeatingWindspeed,              !- Feature Name 26
  Double,                                 !- Feature Data Type 26
  2.8062500000000004,                     !- Feature Value 26
  EPWDesignCoolingDrybulb,                !- Feature Name 27
  Double,                                 !- Feature Data Type 27
  91.939999999999998,                     !- Feature Value 27
  EPWDesignCoolingWetbulb,                !- Feature Name 28
  Double,                                 !- Feature Data Type 28
  59.95131430195849,                      !- Feature Value 28
  EPWDesignCoolingHumidityRatio,          !- Feature Name 29
  Double,                                 !- Feature Data Type 29
  0.0059161086834698092,                  !- Feature Value 29
  EPWDesignCoolingWindspeed,              !- Feature Name 30
  Double,                                 !- Feature Data Type 30
  3.7999999999999989,                     !- Feature Value 30
  EPWDesignDailyTemperatureRange,         !- Feature Name 31
  Double,                                 !- Feature Data Type 31
  24.915483870967748,                     !- Feature Value 31
  EPWDesignDehumidDrybulb,                !- Feature Name 32
  Double,                                 !- Feature Data Type 32
  67.996785714285721,                     !- Feature Value 32
  EPWDesignDehumidHumidityRatio,          !- Feature Name 33
  Double,                                 !- Feature Data Type 33
  0.012133744170488724,                   !- Feature Value 33
  EPWDesignCoolingDirectNormal,           !- Feature Name 34
  Double,                                 !- Feature Data Type 34
  985,                                    !- Feature Value 34
  EPWDesignCoolingDiffuseHorizontal,      !- Feature Name 35
  Double,                                 !- Feature Data Type 35
  84;                                     !- Feature Value 35

OS:Site,
  {53831041-9519-421a-8281-4fb23c297615}, !- Handle
  Denver Intl Ap_CO_USA,                  !- Name
  39.83,                                  !- Latitude {deg}
  -104.65,                                !- Longitude {deg}
  -7,                                     !- Time Zone {hr}
  1650,                                   !- Elevation {m}
  Suburbs;                                !- Terrain

OS:ClimateZones,
  {9a6d0796-2043-4daf-ac7e-47a9abd72792}, !- Handle
  ,                                       !- Active Institution
  ,                                       !- Active Year
  ,                                       !- Climate Zone Institution Name 1
  ,                                       !- Climate Zone Document Name 1
  ,                                       !- Climate Zone Document Year 1
  ,                                       !- Climate Zone Value 1
  Building America,                       !- Climate Zone Institution Name 2
  ,                                       !- Climate Zone Document Name 2
  0,                                      !- Climate Zone Document Year 2
  Cold;                                   !- Climate Zone Value 2

OS:Site:WaterMainsTemperature,
  {7283a440-4b00-4c11-811a-abd90a023321}, !- Handle
  Correlation,                            !- Calculation Method
  ,                                       !- Temperature Schedule Name
  10.8753424657535,                       !- Annual Average Outdoor Air Temperature {C}
  23.1524007936508;                       !- Maximum Difference In Monthly Average Outdoor Air Temperatures {deltaC}

OS:RunPeriodControl:DaylightSavingTime,
  {27ad24f4-f76f-4f01-81f0-2333038db7c4}, !- Handle
  4/7,                                    !- Start Date
  10/26;                                  !- End Date

OS:Site:GroundTemperature:Deep,
  {03ae41a0-a48e-4040-ade0-29961ebc06f5}, !- Handle
  10.8753424657535,                       !- January Deep Ground Temperature {C}
  10.8753424657535,                       !- February Deep Ground Temperature {C}
  10.8753424657535,                       !- March Deep Ground Temperature {C}
  10.8753424657535,                       !- April Deep Ground Temperature {C}
  10.8753424657535,                       !- May Deep Ground Temperature {C}
  10.8753424657535,                       !- June Deep Ground Temperature {C}
  10.8753424657535,                       !- July Deep Ground Temperature {C}
  10.8753424657535,                       !- August Deep Ground Temperature {C}
  10.8753424657535,                       !- September Deep Ground Temperature {C}
  10.8753424657535,                       !- October Deep Ground Temperature {C}
  10.8753424657535,                       !- November Deep Ground Temperature {C}
  10.8753424657535;                       !- December Deep Ground Temperature {C}

OS:Building,
  {b6928a29-678e-47b1-bb13-e793495d5aa0}, !- Handle
  Building 1,                             !- Name
  ,                                       !- Building Sector Type
  270,                                    !- North Axis {deg}
  ,                                       !- Nominal Floor to Floor Height {m}
  ,                                       !- Space Type Name
  ,                                       !- Default Construction Set Name
  ,                                       !- Default Schedule Set Name
  2,                                      !- Standards Number of Stories
  1,                                      !- Standards Number of Above Ground Stories
  ,                                       !- Standards Template
  singlefamilydetached,                   !- Standards Building Type
  1;                                      !- Standards Number of Living Units

OS:AdditionalProperties,
  {4244d17a-d29b-418f-a2fb-aadf6d29b146}, !- Handle
  {b6928a29-678e-47b1-bb13-e793495d5aa0}, !- Object Name
  Total Units Represented,                !- Feature Name 1
  Integer,                                !- Feature Data Type 1
  1,                                      !- Feature Value 1
  Total Units Modeled,                    !- Feature Name 2
  Integer,                                !- Feature Data Type 2
  1,                                      !- Feature Value 2
  has_water_heater_flue,                  !- Feature Name 3
  Boolean,                                !- Feature Data Type 3
  false;                                  !- Feature Value 3

OS:ThermalZone,
  {921944f7-9a38-4393-ba80-cfeb0b79fa4f}, !- Handle
  living zone,                            !- Name
  ,                                       !- Multiplier
  ,                                       !- Ceiling Height {m}
  ,                                       !- Volume {m3}
  ,                                       !- Floor Area {m2}
  ,                                       !- Zone Inside Convection Algorithm
  ,                                       !- Zone Outside Convection Algorithm
  ,                                       !- Zone Conditioning Equipment List Name
  {dbaa1031-f919-4a6f-930e-502e6632c9dc}, !- Zone Air Inlet Port List
  {306a0846-5e7d-4f99-b039-a630e810095e}, !- Zone Air Exhaust Port List
  {4863a2f8-5a55-40da-b1dd-55811b0c2ce0}, !- Zone Air Node Name
  {c5cae8b5-f88d-4b15-a48b-38e358310a6f}, !- Zone Return Air Port List
  ,                                       !- Primary Daylighting Control Name
  ,                                       !- Fraction of Zone Controlled by Primary Daylighting Control
  ,                                       !- Secondary Daylighting Control Name
  ,                                       !- Fraction of Zone Controlled by Secondary Daylighting Control
  ,                                       !- Illuminance Map Name
  ,                                       !- Group Rendering Name
  {47c06a51-743e-4fc0-ae1b-5f9840a07a22}, !- Thermostat Name
  No;                                     !- Use Ideal Air Loads

OS:Node,
  {47fb730b-4d99-4a21-a390-05ae5b519bb1}, !- Handle
  Node 1,                                 !- Name
  {4863a2f8-5a55-40da-b1dd-55811b0c2ce0}, !- Inlet Port
  ;                                       !- Outlet Port

OS:Connection,
  {4863a2f8-5a55-40da-b1dd-55811b0c2ce0}, !- Handle
  {4c43afd3-24a4-47f0-9b00-faff8277e185}, !- Name
  {921944f7-9a38-4393-ba80-cfeb0b79fa4f}, !- Source Object
  11,                                     !- Outlet Port
  {47fb730b-4d99-4a21-a390-05ae5b519bb1}, !- Target Object
  2;                                      !- Inlet Port

OS:PortList,
  {dbaa1031-f919-4a6f-930e-502e6632c9dc}, !- Handle
  {ea348f2a-b84e-4329-ae25-bb54c0f6f90c}, !- Name
  {921944f7-9a38-4393-ba80-cfeb0b79fa4f}, !- HVAC Component
  {eb911be9-1a0a-40b3-8870-f563fbfa0e1b}, !- Port 1
  {51f5d86d-b339-4e0c-ac7d-1c5e4789bae9}; !- Port 2

OS:PortList,
  {306a0846-5e7d-4f99-b039-a630e810095e}, !- Handle
  {ca988ac5-12e7-4101-b769-46e5b9c8255a}, !- Name
  {921944f7-9a38-4393-ba80-cfeb0b79fa4f}; !- HVAC Component

OS:PortList,
  {c5cae8b5-f88d-4b15-a48b-38e358310a6f}, !- Handle
  {74f0bbc6-8e10-45d6-8ece-788cdc7c4cff}, !- Name
  {921944f7-9a38-4393-ba80-cfeb0b79fa4f}, !- HVAC Component
  {ab7f1075-e630-496a-8de6-282ba0974034}, !- Port 1
  {50ce3c6a-20de-41ef-9e2e-6a4a33c91a48}; !- Port 2

OS:Sizing:Zone,
  {9e021073-d704-4628-9f37-8a0da2d6c5e3}, !- Handle
  {921944f7-9a38-4393-ba80-cfeb0b79fa4f}, !- Zone or ZoneList Name
  SupplyAirTemperature,                   !- Zone Cooling Design Supply Air Temperature Input Method
  14,                                     !- Zone Cooling Design Supply Air Temperature {C}
  11.11,                                  !- Zone Cooling Design Supply Air Temperature Difference {deltaC}
  SupplyAirTemperature,                   !- Zone Heating Design Supply Air Temperature Input Method
  40,                                     !- Zone Heating Design Supply Air Temperature {C}
  11.11,                                  !- Zone Heating Design Supply Air Temperature Difference {deltaC}
  0.0085,                                 !- Zone Cooling Design Supply Air Humidity Ratio {kg-H2O/kg-air}
  0.008,                                  !- Zone Heating Design Supply Air Humidity Ratio {kg-H2O/kg-air}
  ,                                       !- Zone Heating Sizing Factor
  ,                                       !- Zone Cooling Sizing Factor
  DesignDay,                              !- Cooling Design Air Flow Method
  ,                                       !- Cooling Design Air Flow Rate {m3/s}
  ,                                       !- Cooling Minimum Air Flow per Zone Floor Area {m3/s-m2}
  ,                                       !- Cooling Minimum Air Flow {m3/s}
  ,                                       !- Cooling Minimum Air Flow Fraction
  DesignDay,                              !- Heating Design Air Flow Method
  ,                                       !- Heating Design Air Flow Rate {m3/s}
  ,                                       !- Heating Maximum Air Flow per Zone Floor Area {m3/s-m2}
  ,                                       !- Heating Maximum Air Flow {m3/s}
  ,                                       !- Heating Maximum Air Flow Fraction
  ,                                       !- Design Zone Air Distribution Effectiveness in Cooling Mode
  ,                                       !- Design Zone Air Distribution Effectiveness in Heating Mode
  No,                                     !- Account for Dedicated Outdoor Air System
  NeutralSupplyAir,                       !- Dedicated Outdoor Air System Control Strategy
  autosize,                               !- Dedicated Outdoor Air Low Setpoint Temperature for Design {C}
  autosize;                               !- Dedicated Outdoor Air High Setpoint Temperature for Design {C}

OS:ZoneHVAC:EquipmentList,
  {cb14a82e-971d-47a9-a36a-ea449727e667}, !- Handle
  Zone HVAC Equipment List 1,             !- Name
  {921944f7-9a38-4393-ba80-cfeb0b79fa4f}, !- Thermal Zone
  SequentialLoad,                         !- Load Distribution Scheme
  {ab022f82-a266-4d18-adfc-2971a04437be}, !- Zone Equipment 1
  1,                                      !- Zone Equipment Cooling Sequence 1
  1,                                      !- Zone Equipment Heating or No-Load Sequence 1
  ,                                       !- Zone Equipment Sequential Cooling Fraction Schedule Name 1
  ,                                       !- Zone Equipment Sequential Heating Fraction Schedule Name 1
  {778bdfb2-ec53-4fb6-86c2-11397ccc0623}, !- Zone Equipment 2
  2,                                      !- Zone Equipment Cooling Sequence 2
  2,                                      !- Zone Equipment Heating or No-Load Sequence 2
  ,                                       !- Zone Equipment Sequential Cooling Fraction Schedule Name 2
  ;                                       !- Zone Equipment Sequential Heating Fraction Schedule Name 2

OS:ThermalZone,
  {494d973f-309e-43f4-9d8e-1e273ecc1d7c}, !- Handle
  garage zone,                            !- Name
  ,                                       !- Multiplier
  ,                                       !- Ceiling Height {m}
  ,                                       !- Volume {m3}
  ,                                       !- Floor Area {m2}
  ,                                       !- Zone Inside Convection Algorithm
  ,                                       !- Zone Outside Convection Algorithm
  ,                                       !- Zone Conditioning Equipment List Name
  {66071bed-8853-4ba5-b3a9-1235695a6843}, !- Zone Air Inlet Port List
  {ec552f89-4222-432f-be4d-9f18e15ffbb6}, !- Zone Air Exhaust Port List
  {ff081eac-e8f9-49fc-ad6d-5c5461c964a0}, !- Zone Air Node Name
  {d94df580-6237-4417-b6a7-6fc203671c39}, !- Zone Return Air Port List
  ,                                       !- Primary Daylighting Control Name
  ,                                       !- Fraction of Zone Controlled by Primary Daylighting Control
  ,                                       !- Secondary Daylighting Control Name
  ,                                       !- Fraction of Zone Controlled by Secondary Daylighting Control
  ,                                       !- Illuminance Map Name
  ,                                       !- Group Rendering Name
  ,                                       !- Thermostat Name
  No;                                     !- Use Ideal Air Loads

OS:Node,
  {7406542e-e200-40c4-aba1-2bbc5e9e5474}, !- Handle
  Node 2,                                 !- Name
  {ff081eac-e8f9-49fc-ad6d-5c5461c964a0}, !- Inlet Port
  ;                                       !- Outlet Port

OS:Connection,
  {ff081eac-e8f9-49fc-ad6d-5c5461c964a0}, !- Handle
  {f7663088-1bc0-435d-a7bf-c7276ec1e31c}, !- Name
  {494d973f-309e-43f4-9d8e-1e273ecc1d7c}, !- Source Object
  11,                                     !- Outlet Port
  {7406542e-e200-40c4-aba1-2bbc5e9e5474}, !- Target Object
  2;                                      !- Inlet Port

OS:PortList,
  {66071bed-8853-4ba5-b3a9-1235695a6843}, !- Handle
  {9ccecc75-7b80-4bb6-a0e3-9975259bca25}, !- Name
  {494d973f-309e-43f4-9d8e-1e273ecc1d7c}; !- HVAC Component

OS:PortList,
  {ec552f89-4222-432f-be4d-9f18e15ffbb6}, !- Handle
  {880cd634-ca98-4bf1-a986-b49260850eb9}, !- Name
  {494d973f-309e-43f4-9d8e-1e273ecc1d7c}; !- HVAC Component

OS:PortList,
  {d94df580-6237-4417-b6a7-6fc203671c39}, !- Handle
  {45ea21e9-2f4b-4df9-97a4-552cdb45f203}, !- Name
  {494d973f-309e-43f4-9d8e-1e273ecc1d7c}; !- HVAC Component

OS:Sizing:Zone,
  {9505a0aa-8a2a-45ce-b71f-cbf1ff28edc1}, !- Handle
  {494d973f-309e-43f4-9d8e-1e273ecc1d7c}, !- Zone or ZoneList Name
  SupplyAirTemperature,                   !- Zone Cooling Design Supply Air Temperature Input Method
  14,                                     !- Zone Cooling Design Supply Air Temperature {C}
  11.11,                                  !- Zone Cooling Design Supply Air Temperature Difference {deltaC}
  SupplyAirTemperature,                   !- Zone Heating Design Supply Air Temperature Input Method
  40,                                     !- Zone Heating Design Supply Air Temperature {C}
  11.11,                                  !- Zone Heating Design Supply Air Temperature Difference {deltaC}
  0.0085,                                 !- Zone Cooling Design Supply Air Humidity Ratio {kg-H2O/kg-air}
  0.008,                                  !- Zone Heating Design Supply Air Humidity Ratio {kg-H2O/kg-air}
  ,                                       !- Zone Heating Sizing Factor
  ,                                       !- Zone Cooling Sizing Factor
  DesignDay,                              !- Cooling Design Air Flow Method
  ,                                       !- Cooling Design Air Flow Rate {m3/s}
  ,                                       !- Cooling Minimum Air Flow per Zone Floor Area {m3/s-m2}
  ,                                       !- Cooling Minimum Air Flow {m3/s}
  ,                                       !- Cooling Minimum Air Flow Fraction
  DesignDay,                              !- Heating Design Air Flow Method
  ,                                       !- Heating Design Air Flow Rate {m3/s}
  ,                                       !- Heating Maximum Air Flow per Zone Floor Area {m3/s-m2}
  ,                                       !- Heating Maximum Air Flow {m3/s}
  ,                                       !- Heating Maximum Air Flow Fraction
  ,                                       !- Design Zone Air Distribution Effectiveness in Cooling Mode
  ,                                       !- Design Zone Air Distribution Effectiveness in Heating Mode
  No,                                     !- Account for Dedicated Outdoor Air System
  NeutralSupplyAir,                       !- Dedicated Outdoor Air System Control Strategy
  autosize,                               !- Dedicated Outdoor Air Low Setpoint Temperature for Design {C}
  autosize;                               !- Dedicated Outdoor Air High Setpoint Temperature for Design {C}

OS:ZoneHVAC:EquipmentList,
  {d1b02e31-d870-4bf4-9187-23b0e50e9730}, !- Handle
  Zone HVAC Equipment List 2,             !- Name
  {494d973f-309e-43f4-9d8e-1e273ecc1d7c}; !- Thermal Zone

OS:Space,
  {bc8bed0e-cfbb-4e1b-95be-1543a48d0db5}, !- Handle
  garage space,                           !- Name
  {849bb164-431d-49ea-8c49-82e266fe950f}, !- Space Type Name
  ,                                       !- Default Construction Set Name
  ,                                       !- Default Schedule Set Name
  -0,                                     !- Direction of Relative North {deg}
  0,                                      !- X Origin {m}
  0,                                      !- Y Origin {m}
  0,                                      !- Z Origin {m}
  ,                                       !- Building Story Name
  {494d973f-309e-43f4-9d8e-1e273ecc1d7c}; !- Thermal Zone Name

OS:Surface,
  {46a172e2-1f1d-4800-87b1-eb351790d8bf}, !- Handle
  Surface 1,                              !- Name
  Floor,                                  !- Surface Type
  {7fbf2ca0-0ad3-43c1-9a74-047b4552f805}, !- Construction Name
  {bc8bed0e-cfbb-4e1b-95be-1543a48d0db5}, !- Space Name
  Foundation,                             !- Outside Boundary Condition
  {2bce62f7-eb01-4db9-b900-f7e7c5445b43}, !- Outside Boundary Condition Object
  NoSun,                                  !- Sun Exposure
  NoWind,                                 !- Wind Exposure
  ,                                       !- View Factor to Ground
  ,                                       !- Number of Vertices
  16.3508427172132, -3.6576, 0,           !- X,Y,Z Vertex 1 {m}
  16.3508427172132, 3.6576, 0,            !- X,Y,Z Vertex 2 {m}
  20.0084427172132, 3.6576, 0,            !- X,Y,Z Vertex 3 {m}
  20.0084427172132, -3.6576, 0;           !- X,Y,Z Vertex 4 {m}

OS:Surface,
  {a3dd23c5-258a-494a-b4ae-427f3df3f0f1}, !- Handle
  Surface 2,                              !- Name
  Wall,                                   !- Surface Type
  {fff98663-6bda-4542-a379-cd239be901e4}, !- Construction Name
  {bc8bed0e-cfbb-4e1b-95be-1543a48d0db5}, !- Space Name
  Surface,                                !- Outside Boundary Condition
  {d1020644-5a23-4587-89b1-a3aeba3248fc}, !- Outside Boundary Condition Object
  NoSun,                                  !- Sun Exposure
  NoWind,                                 !- Wind Exposure
  ,                                       !- View Factor to Ground
  ,                                       !- Number of Vertices
  16.3508427172132, 3.6576, 2.4384,       !- X,Y,Z Vertex 1 {m}
  16.3508427172132, 3.6576, 0,            !- X,Y,Z Vertex 2 {m}
  16.3508427172132, 0, 0,                 !- X,Y,Z Vertex 3 {m}
  16.3508427172132, 0, 2.4384;            !- X,Y,Z Vertex 4 {m}

OS:Surface,
  {312fff21-32d2-44ca-b166-cbf56016e20f}, !- Handle
  Surface 3,                              !- Name
  Wall,                                   !- Surface Type