!- NOTE: Auto-generated from /test/osw_files/SFD_70heat_75cool_12mo_seasons_FB.osw

OS:Version,
  {7e9d8c32-9b85-4de2-9059-0126d36aa0e5}, !- Handle
  2.9.0;                                  !- Version Identifier

OS:SimulationControl,
  {249f3b1a-367c-4ed9-8ad4-2b6f7761a262}, !- Handle
  ,                                       !- Do Zone Sizing Calculation
  ,                                       !- Do System Sizing Calculation
  ,                                       !- Do Plant Sizing Calculation
  No;                                     !- Run Simulation for Sizing Periods

OS:Timestep,
  {44506885-19ac-4f2a-b373-d261606f3f46}, !- Handle
  6;                                      !- Number of Timesteps per Hour

OS:ShadowCalculation,
  {0dd5d27a-fdea-4fff-8746-7f7c848c5d26}, !- Handle
  20,                                     !- Calculation Frequency
  200;                                    !- Maximum Figures in Shadow Overlap Calculations

OS:SurfaceConvectionAlgorithm:Outside,
  {786a13b8-3661-4eea-815d-a2b63f9e704d}, !- Handle
  DOE-2;                                  !- Algorithm

OS:SurfaceConvectionAlgorithm:Inside,
  {808de597-cf0a-4d6c-a5f9-ad5c42c3c92e}, !- Handle
  TARP;                                   !- Algorithm

OS:ZoneCapacitanceMultiplier:ResearchSpecial,
  {8c417c8e-8fd1-416e-bb56-dfd32cd437ec}, !- Handle
  ,                                       !- Temperature Capacity Multiplier
  15,                                     !- Humidity Capacity Multiplier
  ;                                       !- Carbon Dioxide Capacity Multiplier

OS:RunPeriod,
  {03a75fcb-b8f6-49ec-bcdd-1a463ae2eef4}, !- Handle
  Run Period 1,                           !- Name
  1,                                      !- Begin Month
  1,                                      !- Begin Day of Month
  12,                                     !- End Month
  31,                                     !- End Day of Month
  ,                                       !- Use Weather File Holidays and Special Days
  ,                                       !- Use Weather File Daylight Saving Period
  ,                                       !- Apply Weekend Holiday Rule
  ,                                       !- Use Weather File Rain Indicators
  ,                                       !- Use Weather File Snow Indicators
  ;                                       !- Number of Times Runperiod to be Repeated

OS:YearDescription,
  {422be2c7-8f16-408f-a4bc-c76b82109bf7}, !- Handle
  2007,                                   !- Calendar Year
  ,                                       !- Day of Week for Start Day
  ;                                       !- Is Leap Year

OS:WeatherFile,
  {d1d39e4c-07ab-4e3b-88fc-564d24f6663b}, !- Handle
  Denver Intl Ap,                         !- City
  CO,                                     !- State Province Region
  USA,                                    !- Country
  TMY3,                                   !- Data Source
  725650,                                 !- WMO Number
  39.83,                                  !- Latitude {deg}
  -104.65,                                !- Longitude {deg}
  -7,                                     !- Time Zone {hr}
  1650,                                   !- Elevation {m}
  file:../weather/USA_CO_Denver.Intl.AP.725650_TMY3.epw, !- Url
  E23378AA;                               !- Checksum

OS:AdditionalProperties,
  {f966a4bb-574d-4b2c-9403-6ef2fa701dc2}, !- Handle
  {d1d39e4c-07ab-4e3b-88fc-564d24f6663b}, !- Object Name
  EPWHeaderCity,                          !- Feature Name 1
  String,                                 !- Feature Data Type 1
  Denver Intl Ap,                         !- Feature Value 1
  EPWHeaderState,                         !- Feature Name 2
  String,                                 !- Feature Data Type 2
  CO,                                     !- Feature Value 2
  EPWHeaderCountry,                       !- Feature Name 3
  String,                                 !- Feature Data Type 3
  USA,                                    !- Feature Value 3
  EPWHeaderDataSource,                    !- Feature Name 4
  String,                                 !- Feature Data Type 4
  TMY3,                                   !- Feature Value 4
  EPWHeaderStation,                       !- Feature Name 5
  String,                                 !- Feature Data Type 5
  725650,                                 !- Feature Value 5
  EPWHeaderLatitude,                      !- Feature Name 6
  Double,                                 !- Feature Data Type 6
  39.829999999999998,                     !- Feature Value 6
  EPWHeaderLongitude,                     !- Feature Name 7
  Double,                                 !- Feature Data Type 7
  -104.65000000000001,                    !- Feature Value 7
  EPWHeaderTimezone,                      !- Feature Name 8
  Double,                                 !- Feature Data Type 8
  -7,                                     !- Feature Value 8
  EPWHeaderAltitude,                      !- Feature Name 9
  Double,                                 !- Feature Data Type 9
  5413.3858267716532,                     !- Feature Value 9
  EPWHeaderLocalPressure,                 !- Feature Name 10
  Double,                                 !- Feature Data Type 10
  0.81937567683596546,                    !- Feature Value 10
  EPWHeaderRecordsPerHour,                !- Feature Name 11
  Double,                                 !- Feature Data Type 11
  0,                                      !- Feature Value 11
  EPWDataAnnualAvgDrybulb,                !- Feature Name 12
  Double,                                 !- Feature Data Type 12
  51.575616438356228,                     !- Feature Value 12
  EPWDataAnnualMinDrybulb,                !- Feature Name 13
  Double,                                 !- Feature Data Type 13
  -2.9200000000000017,                    !- Feature Value 13
  EPWDataAnnualMaxDrybulb,                !- Feature Name 14
  Double,                                 !- Feature Data Type 14
  104,                                    !- Feature Value 14
  EPWDataCDD50F,                          !- Feature Name 15
  Double,                                 !- Feature Data Type 15
  3072.2925000000005,                     !- Feature Value 15
  EPWDataCDD65F,                          !- Feature Name 16
  Double,                                 !- Feature Data Type 16
  883.62000000000035,                     !- Feature Value 16
  EPWDataHDD50F,                          !- Feature Name 17
  Double,                                 !- Feature Data Type 17
  2497.1925000000001,                     !- Feature Value 17
  EPWDataHDD65F,                          !- Feature Name 18
  Double,                                 !- Feature Data Type 18
  5783.5200000000013,                     !- Feature Value 18
  EPWDataAnnualAvgWindspeed,              !- Feature Name 19
  Double,                                 !- Feature Data Type 19
  3.9165296803649667,                     !- Feature Value 19
  EPWDataMonthlyAvgDrybulbs,              !- Feature Name 20
  String,                                 !- Feature Data Type 20
  33.4191935483871&#4431.90142857142857&#4443.02620967741937&#4442.48624999999999&#4459.877741935483854&#4473.57574999999997&#4472.07975806451608&#4472.70008064516134&#4466.49200000000006&#4450.079112903225806&#4437.218250000000005&#4434.582177419354835, !- Feature Value 20
  EPWDataGroundMonthlyTemps,              !- Feature Name 21
  String,                                 !- Feature Data Type 21
  44.08306285945173&#4440.89570904991865&#4440.64045432632048&#4442.153016571250646&#4448.225111118704206&#4454.268919273837525&#4459.508577937551024&#4462.82777283423508&#4463.10975667174995&#4460.41014950381947&#4455.304105212311526&#4449.445696474514364, !- Feature Value 21
  EPWDataWSF,                             !- Feature Name 22
  Double,                                 !- Feature Data Type 22
  0.58999999999999997,                    !- Feature Value 22
  EPWDataMonthlyAvgDailyHighDrybulbs,     !- Feature Name 23
  String,                                 !- Feature Data Type 23
  47.41032258064516&#4446.58642857142857&#4455.15032258064517&#4453.708&#4472.80193548387098&#4488.67600000000002&#4486.1858064516129&#4485.87225806451613&#4482.082&#4463.18064516129033&#4448.73400000000001&#4448.87935483870968, !- Feature Value 23
  EPWDataMonthlyAvgDailyLowDrybulbs,      !- Feature Name 24
  String,                                 !- Feature Data Type 24
  19.347741935483874&#4419.856428571428573&#4430.316129032258065&#4431.112&#4447.41612903225806&#4457.901999999999994&#4459.063870967741934&#4460.956774193548384&#4452.352000000000004&#4438.41612903225806&#4427.002000000000002&#4423.02903225806451, !- Feature Value 24
  EPWDesignHeatingDrybulb,                !- Feature Name 25
  Double,                                 !- Feature Data Type 25
  12.02,                                  !- Feature Value 25
  EPWDesignHeatingWindspeed,              !- Feature Name 26
  Double,                                 !- Feature Data Type 26
  2.8062500000000004,                     !- Feature Value 26
  EPWDesignCoolingDrybulb,                !- Feature Name 27
  Double,                                 !- Feature Data Type 27
  91.939999999999998,                     !- Feature Value 27
  EPWDesignCoolingWetbulb,                !- Feature Name 28
  Double,                                 !- Feature Data Type 28
  59.95131430195849,                      !- Feature Value 28
  EPWDesignCoolingHumidityRatio,          !- Feature Name 29
  Double,                                 !- Feature Data Type 29
  0.0059161086834698092,                  !- Feature Value 29
  EPWDesignCoolingWindspeed,              !- Feature Name 30
  Double,                                 !- Feature Data Type 30
  3.7999999999999989,                     !- Feature Value 30
  EPWDesignDailyTemperatureRange,         !- Feature Name 31
  Double,                                 !- Feature Data Type 31
  24.915483870967748,                     !- Feature Value 31
  EPWDesignDehumidDrybulb,                !- Feature Name 32
  Double,                                 !- Feature Data Type 32
  67.996785714285721,                     !- Feature Value 32
  EPWDesignDehumidHumidityRatio,          !- Feature Name 33
  Double,                                 !- Feature Data Type 33
  0.012133744170488724,                   !- Feature Value 33
  EPWDesignCoolingDirectNormal,           !- Feature Name 34
  Double,                                 !- Feature Data Type 34
  985,                                    !- Feature Value 34
  EPWDesignCoolingDiffuseHorizontal,      !- Feature Name 35
  Double,                                 !- Feature Data Type 35
  84;                                     !- Feature Value 35

OS:Site,
  {a48da243-99af-4d0f-8d83-ca4e40e8414b}, !- Handle
  Denver Intl Ap_CO_USA,                  !- Name
  39.83,                                  !- Latitude {deg}
  -104.65,                                !- Longitude {deg}
  -7,                                     !- Time Zone {hr}
  1650,                                   !- Elevation {m}
  ;                                       !- Terrain

OS:ClimateZones,
  {0152911b-f251-4b50-8dd3-159a4efd45e3}, !- Handle
  ,                                       !- Active Institution
  ,                                       !- Active Year
  ,                                       !- Climate Zone Institution Name 1
  ,                                       !- Climate Zone Document Name 1
  ,                                       !- Climate Zone Document Year 1
  ,                                       !- Climate Zone Value 1
  Building America,                       !- Climate Zone Institution Name 2
  ,                                       !- Climate Zone Document Name 2
  0,                                      !- Climate Zone Document Year 2
  Cold;                                   !- Climate Zone Value 2

OS:Site:WaterMainsTemperature,
  {48e2ee84-da51-4613-b4c7-e8c62aba4cac}, !- Handle
  Correlation,                            !- Calculation Method
  ,                                       !- Temperature Schedule Name
  10.8753424657535,                       !- Annual Average Outdoor Air Temperature {C}
  23.1524007936508;                       !- Maximum Difference In Monthly Average Outdoor Air Temperatures {deltaC}

OS:RunPeriodControl:DaylightSavingTime,
  {c0ca83ff-c84e-42fd-9549-937f072e6fb9}, !- Handle
  4/7,                                    !- Start Date
  10/26;                                  !- End Date

OS:Site:GroundTemperature:Deep,
  {0b9f10bf-2d1c-4bd8-a773-7ed4d96b3a03}, !- Handle
  10.8753424657535,                       !- January Deep Ground Temperature {C}
  10.8753424657535,                       !- February Deep Ground Temperature {C}
  10.8753424657535,                       !- March Deep Ground Temperature {C}
  10.8753424657535,                       !- April Deep Ground Temperature {C}
  10.8753424657535,                       !- May Deep Ground Temperature {C}
  10.8753424657535,                       !- June Deep Ground Temperature {C}
  10.8753424657535,                       !- July Deep Ground Temperature {C}
  10.8753424657535,                       !- August Deep Ground Temperature {C}
  10.8753424657535,                       !- September Deep Ground Temperature {C}
  10.8753424657535,                       !- October Deep Ground Temperature {C}
  10.8753424657535,                       !- November Deep Ground Temperature {C}
  10.8753424657535;                       !- December Deep Ground Temperature {C}

OS:Building,
  {4dc3bd85-b750-4f3d-8867-973d7af87002}, !- Handle
  Building 1,                             !- Name
  ,                                       !- Building Sector Type
  0,                                      !- North Axis {deg}
  ,                                       !- Nominal Floor to Floor Height {m}
  ,                                       !- Space Type Name
  ,                                       !- Default Construction Set Name
  ,                                       !- Default Schedule Set Name
  2,                                      !- Standards Number of Stories
  1,                                      !- Standards Number of Above Ground Stories
  ,                                       !- Standards Template
  singlefamilydetached,                   !- Standards Building Type
  1;                                      !- Standards Number of Living Units

OS:AdditionalProperties,
  {ba4021b0-5cbe-4fa7-a500-ebc6f49d66f8}, !- Handle
  {4dc3bd85-b750-4f3d-8867-973d7af87002}, !- Object Name
  Total Units Represented,                !- Feature Name 1
  Integer,                                !- Feature Data Type 1
  1,                                      !- Feature Value 1
  Total Units Modeled,                    !- Feature Name 2
  Integer,                                !- Feature Data Type 2
  1,                                      !- Feature Value 2
  has_hvac_flue,                          !- Feature Name 3
  Boolean,                                !- Feature Data Type 3
  true;                                   !- Feature Value 3

OS:ThermalZone,
  {8a3d5190-cd18-43a0-9c47-5fb85994a9ed}, !- Handle
  living zone,                            !- Name
  ,                                       !- Multiplier
  ,                                       !- Ceiling Height {m}
  ,                                       !- Volume {m3}
  ,                                       !- Floor Area {m2}
  ,                                       !- Zone Inside Convection Algorithm
  ,                                       !- Zone Outside Convection Algorithm
  ,                                       !- Zone Conditioning Equipment List Name
  {ef1bd74c-0cdc-4cb2-8b3d-a9520e8b3d9c}, !- Zone Air Inlet Port List
  {9b7fae0a-d0f2-407b-a9d0-de13f8569912}, !- Zone Air Exhaust Port List
  {b81d3ab5-99ef-46ad-b256-f42eba863db3}, !- Zone Air Node Name
  {60045dd9-6236-4512-b20a-bcf417509342}, !- Zone Return Air Port List
  ,                                       !- Primary Daylighting Control Name
  ,                                       !- Fraction of Zone Controlled by Primary Daylighting Control
  ,                                       !- Secondary Daylighting Control Name
  ,                                       !- Fraction of Zone Controlled by Secondary Daylighting Control
  ,                                       !- Illuminance Map Name
  ,                                       !- Group Rendering Name
  {39a494da-b0bf-4d95-9a20-bd261d51c439}, !- Thermostat Name
  No;                                     !- Use Ideal Air Loads

OS:Node,
  {121ddfe2-8cb9-4a27-a352-232276c17049}, !- Handle
  Node 1,                                 !- Name
  {b81d3ab5-99ef-46ad-b256-f42eba863db3}, !- Inlet Port
  ;                                       !- Outlet Port

OS:Connection,
  {b81d3ab5-99ef-46ad-b256-f42eba863db3}, !- Handle
  {44500aaf-40c7-411b-9af9-4c2e9f39f60b}, !- Name
  {8a3d5190-cd18-43a0-9c47-5fb85994a9ed}, !- Source Object
  11,                                     !- Outlet Port
  {121ddfe2-8cb9-4a27-a352-232276c17049}, !- Target Object
  2;                                      !- Inlet Port

OS:PortList,
  {ef1bd74c-0cdc-4cb2-8b3d-a9520e8b3d9c}, !- Handle
  {e4f36645-18c5-4d73-b6e0-f69e25cfacad}, !- Name
  {8a3d5190-cd18-43a0-9c47-5fb85994a9ed}, !- HVAC Component
  {23f9fe72-dc8b-429b-9ca3-a2aae335b197}, !- Port 1
  {178d619d-daa9-4fbf-862c-033db75fdce8}; !- Port 2

OS:PortList,
  {9b7fae0a-d0f2-407b-a9d0-de13f8569912}, !- Handle
  {5e8b98bd-cad1-4903-903f-e5cabbed3f80}, !- Name
  {8a3d5190-cd18-43a0-9c47-5fb85994a9ed}; !- HVAC Component

OS:PortList,
  {60045dd9-6236-4512-b20a-bcf417509342}, !- Handle
  {7221eaf1-7710-4b8c-80c7-e8d3bb84005a}, !- Name
  {8a3d5190-cd18-43a0-9c47-5fb85994a9ed}, !- HVAC Component
  {80810dc4-3af4-4550-9032-b831d1f90da2}, !- Port 1
  {934674f5-e691-4fdd-88e7-504e51677112}; !- Port 2

OS:Sizing:Zone,
  {4383ac9b-a188-470b-a0a1-833abe5fc986}, !- Handle
  {8a3d5190-cd18-43a0-9c47-5fb85994a9ed}, !- Zone or ZoneList Name
  SupplyAirTemperature,                   !- Zone Cooling Design Supply Air Temperature Input Method
  14,                                     !- Zone Cooling Design Supply Air Temperature {C}
  11.11,                                  !- Zone Cooling Design Supply Air Temperature Difference {deltaC}
  SupplyAirTemperature,                   !- Zone Heating Design Supply Air Temperature Input Method
  40,                                     !- Zone Heating Design Supply Air Temperature {C}
  11.11,                                  !- Zone Heating Design Supply Air Temperature Difference {deltaC}
  0.0085,                                 !- Zone Cooling Design Supply Air Humidity Ratio {kg-H2O/kg-air}
  0.008,                                  !- Zone Heating Design Supply Air Humidity Ratio {kg-H2O/kg-air}
  ,                                       !- Zone Heating Sizing Factor
  ,                                       !- Zone Cooling Sizing Factor
  DesignDay,                              !- Cooling Design Air Flow Method
  ,                                       !- Cooling Design Air Flow Rate {m3/s}
  ,                                       !- Cooling Minimum Air Flow per Zone Floor Area {m3/s-m2}
  ,                                       !- Cooling Minimum Air Flow {m3/s}
  ,                                       !- Cooling Minimum Air Flow Fraction
  DesignDay,                              !- Heating Design Air Flow Method
  ,                                       !- Heating Design Air Flow Rate {m3/s}
  ,                                       !- Heating Maximum Air Flow per Zone Floor Area {m3/s-m2}
  ,                                       !- Heating Maximum Air Flow {m3/s}
  ,                                       !- Heating Maximum Air Flow Fraction
  ,                                       !- Design Zone Air Distribution Effectiveness in Cooling Mode
  ,                                       !- Design Zone Air Distribution Effectiveness in Heating Mode
  No,                                     !- Account for Dedicated Outdoor Air System
  NeutralSupplyAir,                       !- Dedicated Outdoor Air System Control Strategy
  autosize,                               !- Dedicated Outdoor Air Low Setpoint Temperature for Design {C}
  autosize;                               !- Dedicated Outdoor Air High Setpoint Temperature for Design {C}

OS:ZoneHVAC:EquipmentList,
  {cf997119-d030-4f64-b0f5-d618c0352287}, !- Handle
  Zone HVAC Equipment List 1,             !- Name
  {8a3d5190-cd18-43a0-9c47-5fb85994a9ed}, !- Thermal Zone
  SequentialLoad,                         !- Load Distribution Scheme
  {89e85ddc-e890-46e6-bf47-6dc371c9daba}, !- Zone Equipment 1
  1,                                      !- Zone Equipment Cooling Sequence 1
  1,                                      !- Zone Equipment Heating or No-Load Sequence 1
  ,                                       !- Zone Equipment Sequential Cooling Fraction Schedule Name 1
  ,                                       !- Zone Equipment Sequential Heating Fraction Schedule Name 1
  {8607a85c-215c-4f6f-a8a7-5062d6903cfd}, !- Zone Equipment 2
  2,                                      !- Zone Equipment Cooling Sequence 2
  2,                                      !- Zone Equipment Heating or No-Load Sequence 2
  ,                                       !- Zone Equipment Sequential Cooling Fraction Schedule Name 2
  ;                                       !- Zone Equipment Sequential Heating Fraction Schedule Name 2

OS:ThermalZone,
  {fe093454-8309-4e09-bedd-607b6544ff8e}, !- Handle
  garage zone,                            !- Name
  ,                                       !- Multiplier
  ,                                       !- Ceiling Height {m}
  ,                                       !- Volume {m3}
  ,                                       !- Floor Area {m2}
  ,                                       !- Zone Inside Convection Algorithm
  ,                                       !- Zone Outside Convection Algorithm
  ,                                       !- Zone Conditioning Equipment List Name
  {920dedff-71e0-473c-8a0a-c414953da33a}, !- Zone Air Inlet Port List
  {45aba216-985c-40ae-a231-dc430f2103b8}, !- Zone Air Exhaust Port List
  {c72ef73a-88a6-4d6e-91ae-87f3f86c3040}, !- Zone Air Node Name
  {05b5c468-cfdc-4ec0-ba4c-bf875b81a861}, !- Zone Return Air Port List
  ,                                       !- Primary Daylighting Control Name
  ,                                       !- Fraction of Zone Controlled by Primary Daylighting Control
  ,                                       !- Secondary Daylighting Control Name
  ,                                       !- Fraction of Zone Controlled by Secondary Daylighting Control
  ,                                       !- Illuminance Map Name
  ,                                       !- Group Rendering Name
  ,                                       !- Thermostat Name
  No;                                     !- Use Ideal Air Loads

OS:Node,
  {cf6a2dd8-511e-4dd8-938e-0ee4701bbb74}, !- Handle
  Node 2,                                 !- Name
  {c72ef73a-88a6-4d6e-91ae-87f3f86c3040}, !- Inlet Port
  ;                                       !- Outlet Port

OS:Connection,
  {c72ef73a-88a6-4d6e-91ae-87f3f86c3040}, !- Handle
  {e88c0272-c481-4b33-bc8d-f43502f43620}, !- Name
  {fe093454-8309-4e09-bedd-607b6544ff8e}, !- Source Object
  11,                                     !- Outlet Port
  {cf6a2dd8-511e-4dd8-938e-0ee4701bbb74}, !- Target Object
  2;                                      !- Inlet Port

OS:PortList,
  {920dedff-71e0-473c-8a0a-c414953da33a}, !- Handle
  {668b1393-6288-4c6a-a697-eb8a2096cb71}, !- Name
  {fe093454-8309-4e09-bedd-607b6544ff8e}; !- HVAC Component

OS:PortList,
  {45aba216-985c-40ae-a231-dc430f2103b8}, !- Handle
  {ac71c99f-e1a4-45d8-ba5e-fc31daf801d6}, !- Name
  {fe093454-8309-4e09-bedd-607b6544ff8e}; !- HVAC Component

OS:PortList,
  {05b5c468-cfdc-4ec0-ba4c-bf875b81a861}, !- Handle
  {42cd5847-fa73-4698-9c0a-ae45d99b08c4}, !- Name
  {fe093454-8309-4e09-bedd-607b6544ff8e}; !- HVAC Component

OS:Sizing:Zone,
  {300f24ba-0893-4d99-bcfa-daa811d97248}, !- Handle
  {fe093454-8309-4e09-bedd-607b6544ff8e}, !- Zone or ZoneList Name
  SupplyAirTemperature,                   !- Zone Cooling Design Supply Air Temperature Input Method
  14,                                     !- Zone Cooling Design Supply Air Temperature {C}
  11.11,                                  !- Zone Cooling Design Supply Air Temperature Difference {deltaC}
  SupplyAirTemperature,                   !- Zone Heating Design Supply Air Temperature Input Method
  40,                                     !- Zone Heating Design Supply Air Temperature {C}
  11.11,                                  !- Zone Heating Design Supply Air Temperature Difference {deltaC}
  0.0085,                                 !- Zone Cooling Design Supply Air Humidity Ratio {kg-H2O/kg-air}
  0.008,                                  !- Zone Heating Design Supply Air Humidity Ratio {kg-H2O/kg-air}
  ,                                       !- Zone Heating Sizing Factor
  ,                                       !- Zone Cooling Sizing Factor
  DesignDay,                              !- Cooling Design Air Flow Method
  ,                                       !- Cooling Design Air Flow Rate {m3/s}
  ,                                       !- Cooling Minimum Air Flow per Zone Floor Area {m3/s-m2}
  ,                                       !- Cooling Minimum Air Flow {m3/s}
  ,                                       !- Cooling Minimum Air Flow Fraction
  DesignDay,                              !- Heating Design Air Flow Method
  ,                                       !- Heating Design Air Flow Rate {m3/s}
  ,                                       !- Heating Maximum Air Flow per Zone Floor Area {m3/s-m2}
  ,                                       !- Heating Maximum Air Flow {m3/s}
  ,                                       !- Heating Maximum Air Flow Fraction
  ,                                       !- Design Zone Air Distribution Effectiveness in Cooling Mode
  ,                                       !- Design Zone Air Distribution Effectiveness in Heating Mode
  No,                                     !- Account for Dedicated Outdoor Air System
  NeutralSupplyAir,                       !- Dedicated Outdoor Air System Control Strategy
  autosize,                               !- Dedicated Outdoor Air Low Setpoint Temperature for Design {C}
  autosize;                               !- Dedicated Outdoor Air High Setpoint Temperature for Design {C}

OS:ZoneHVAC:EquipmentList,
  {8a9d0860-118a-4a33-93fa-2789f276c430}, !- Handle
  Zone HVAC Equipment List 2,             !- Name
  {fe093454-8309-4e09-bedd-607b6544ff8e}; !- Thermal Zone

OS:Space,
  {a09cd1a5-56b4-4319-804f-3ac8f30253fc}, !- Handle
  garage space,                           !- Name
  {57d2bea7-4b43-4b72-8e9e-26fcc1d416b7}, !- Space Type Name
  ,                                       !- Default Construction Set Name
  ,                                       !- Default Schedule Set Name
  -0,                                     !- Direction of Relative North {deg}
  0,                                      !- X Origin {m}
  0,                                      !- Y Origin {m}
  0,                                      !- Z Origin {m}
  ,                                       !- Building Story Name
  {fe093454-8309-4e09-bedd-607b6544ff8e}; !- Thermal Zone Name

OS:Surface,
  {d3c77285-49e4-43b8-8d95-0002d4f863f8}, !- Handle
  Surface 1,                              !- Name
  Floor,                                  !- Surface Type
  ,                                       !- Construction Name
  {a09cd1a5-56b4-4319-804f-3ac8f30253fc}, !- Space Name
  Foundation,                             !- Outside Boundary Condition
  ,                                       !- Outside Boundary Condition Object
  NoSun,                                  !- Sun Exposure
  NoWind,                                 !- Wind Exposure
  ,                                       !- View Factor to Ground
  ,                                       !- Number of Vertices
  1.51135555430162, -3.6576, 0,           !- X,Y,Z Vertex 1 {m}
  1.51135555430162, 3.6576, 0,            !- X,Y,Z Vertex 2 {m}
  12.4841555543016, 3.6576, 0,            !- X,Y,Z Vertex 3 {m}
  12.4841555543016, -3.6576, 0;           !- X,Y,Z Vertex 4 {m}

OS:Surface,
  {7c9fe522-542f-42b4-a455-fe9db61e3b04}, !- Handle
  Surface 2,                              !- Name
  Wall,                                   !- Surface Type
  ,                                       !- Construction Name
  {a09cd1a5-56b4-4319-804f-3ac8f30253fc}, !- Space Name
  Surface,                                !- Outside Boundary Condition
  {553e8894-d162-46fb-93aa-b906c87dd887}, !- Outside Boundary Condition Object
  NoSun,                                  !- Sun Exposure
  NoWind,                                 !- Wind Exposure
  ,                                       !- View Factor to Ground
  ,                                       !- Number of Vertices
  1.51135555430162, 3.6576, 2.4384,       !- X,Y,Z Vertex 1 {m}
  1.51135555430162, 3.6576, 0,            !- X,Y,Z Vertex 2 {m}
  1.51135555430162, 0, 0,                 !- X,Y,Z Vertex 3 {m}
  1.51135555430162, 0, 2.4384;            !- X,Y,Z Vertex 4 {m}

OS:Surface,
  {0fa3d0cc-b087-4149-8a9a-b956a5d47950}, !- Handle
  Surface 3,                              !- Name
  Wall,                                   !- Surface Type
  ,                                       !- Construction Name