!- NOTE: Auto-generated from /test/osw_files/SFD_1000sqft_1story_FB_GRG_UA_DoorArea.osw

OS:Version,
  {b77763ea-45ce-4d2e-b0cf-12acaa60135f}, !- Handle
  2.9.1;                                  !- Version Identifier

OS:SimulationControl,
  {6eab5b82-f27c-4e1f-a957-296b4cac382b}, !- Handle
  ,                                       !- Do Zone Sizing Calculation
  ,                                       !- Do System Sizing Calculation
  ,                                       !- Do Plant Sizing Calculation
  No;                                     !- Run Simulation for Sizing Periods

OS:Timestep,
  {2835b74e-6398-45f6-9e36-d00f4fed7975}, !- Handle
  6;                                      !- Number of Timesteps per Hour

OS:ShadowCalculation,
  {79b2392b-e7f9-4c12-9c93-1b020f5485b4}, !- Handle
  20,                                     !- Calculation Frequency
  200;                                    !- Maximum Figures in Shadow Overlap Calculations

OS:SurfaceConvectionAlgorithm:Outside,
  {b7412bc1-7201-44e5-ae8a-466c80f41fc3}, !- Handle
  DOE-2;                                  !- Algorithm

OS:SurfaceConvectionAlgorithm:Inside,
  {4d9e8a99-3ec5-4e38-b3fe-23c5aaa064b8}, !- Handle
  TARP;                                   !- Algorithm

OS:ZoneCapacitanceMultiplier:ResearchSpecial,
  {c2001000-324e-4cbd-aabe-5dc5c5cbc12a}, !- Handle
  ,                                       !- Temperature Capacity Multiplier
  15,                                     !- Humidity Capacity Multiplier
  ;                                       !- Carbon Dioxide Capacity Multiplier

OS:RunPeriod,
  {2e317e9c-353c-450b-9149-49e4b2e8e41d}, !- Handle
  Run Period 1,                           !- Name
  1,                                      !- Begin Month
  1,                                      !- Begin Day of Month
  12,                                     !- End Month
  31,                                     !- End Day of Month
  ,                                       !- Use Weather File Holidays and Special Days
  ,                                       !- Use Weather File Daylight Saving Period
  ,                                       !- Apply Weekend Holiday Rule
  ,                                       !- Use Weather File Rain Indicators
  ,                                       !- Use Weather File Snow Indicators
  ;                                       !- Number of Times Runperiod to be Repeated

OS:YearDescription,
  {11e0cd1d-5734-4183-8a36-7f71aadd5918}, !- Handle
  2007,                                   !- Calendar Year
  ,                                       !- Day of Week for Start Day
  ;                                       !- Is Leap Year

OS:ThermalZone,
  {d9c6e504-8951-4f8b-8da4-0e63a9adf652}, !- Handle
  living zone,                            !- Name
  ,                                       !- Multiplier
  ,                                       !- Ceiling Height {m}
  ,                                       !- Volume {m3}
  ,                                       !- Floor Area {m2}
  ,                                       !- Zone Inside Convection Algorithm
  ,                                       !- Zone Outside Convection Algorithm
  ,                                       !- Zone Conditioning Equipment List Name
  {d877158a-fee0-4989-bada-2a2bed777e33}, !- Zone Air Inlet Port List
  {a16ffed6-2bf4-4032-a8d9-bd856c7ee503}, !- Zone Air Exhaust Port List
  {ed7ab8a9-e7e7-44ad-b33d-79ccea5de78d}, !- Zone Air Node Name
  {41a6030a-f42e-4bec-9d65-f0dd00480984}, !- Zone Return Air Port List
  ,                                       !- Primary Daylighting Control Name
  ,                                       !- Fraction of Zone Controlled by Primary Daylighting Control
  ,                                       !- Secondary Daylighting Control Name
  ,                                       !- Fraction of Zone Controlled by Secondary Daylighting Control
  ,                                       !- Illuminance Map Name
  ,                                       !- Group Rendering Name
  ,                                       !- Thermostat Name
  No;                                     !- Use Ideal Air Loads

OS:Node,
  {21067276-077b-4459-98f9-812678c3bead}, !- Handle
  Node 1,                                 !- Name
  {ed7ab8a9-e7e7-44ad-b33d-79ccea5de78d}, !- Inlet Port
  ;                                       !- Outlet Port

OS:Connection,
  {ed7ab8a9-e7e7-44ad-b33d-79ccea5de78d}, !- Handle
  {20af12e3-2a71-4914-ba69-6324cae44a8b}, !- Name
  {d9c6e504-8951-4f8b-8da4-0e63a9adf652}, !- Source Object
  11,                                     !- Outlet Port
  {21067276-077b-4459-98f9-812678c3bead}, !- Target Object
  2;                                      !- Inlet Port

OS:PortList,
  {d877158a-fee0-4989-bada-2a2bed777e33}, !- Handle
  {db8c951c-1320-4f81-857e-4acfb69170c3}, !- Name
  {d9c6e504-8951-4f8b-8da4-0e63a9adf652}; !- HVAC Component

OS:PortList,
  {a16ffed6-2bf4-4032-a8d9-bd856c7ee503}, !- Handle
  {17c86094-4412-4459-95b6-dca2b0284299}, !- Name
  {d9c6e504-8951-4f8b-8da4-0e63a9adf652}; !- HVAC Component

OS:PortList,
  {41a6030a-f42e-4bec-9d65-f0dd00480984}, !- Handle
  {8a7b9e4e-b123-4e5b-bb1a-5f719ce0f098}, !- Name
  {d9c6e504-8951-4f8b-8da4-0e63a9adf652}; !- HVAC Component

OS:Sizing:Zone,
  {f548aaae-0fe8-4d38-b710-893d4ed47dfe}, !- Handle
  {d9c6e504-8951-4f8b-8da4-0e63a9adf652}, !- Zone or ZoneList Name
  SupplyAirTemperature,                   !- Zone Cooling Design Supply Air Temperature Input Method
  14,                                     !- Zone Cooling Design Supply Air Temperature {C}
  11.11,                                  !- Zone Cooling Design Supply Air Temperature Difference {deltaC}
  SupplyAirTemperature,                   !- Zone Heating Design Supply Air Temperature Input Method
  40,                                     !- Zone Heating Design Supply Air Temperature {C}
  11.11,                                  !- Zone Heating Design Supply Air Temperature Difference {deltaC}
  0.0085,                                 !- Zone Cooling Design Supply Air Humidity Ratio {kg-H2O/kg-air}
  0.008,                                  !- Zone Heating Design Supply Air Humidity Ratio {kg-H2O/kg-air}
  ,                                       !- Zone Heating Sizing Factor
  ,                                       !- Zone Cooling Sizing Factor
  DesignDay,                              !- Cooling Design Air Flow Method
  ,                                       !- Cooling Design Air Flow Rate {m3/s}
  ,                                       !- Cooling Minimum Air Flow per Zone Floor Area {m3/s-m2}
  ,                                       !- Cooling Minimum Air Flow {m3/s}
  ,                                       !- Cooling Minimum Air Flow Fraction
  DesignDay,                              !- Heating Design Air Flow Method
  ,                                       !- Heating Design Air Flow Rate {m3/s}
  ,                                       !- Heating Maximum Air Flow per Zone Floor Area {m3/s-m2}
  ,                                       !- Heating Maximum Air Flow {m3/s}
  ,                                       !- Heating Maximum Air Flow Fraction
  ,                                       !- Design Zone Air Distribution Effectiveness in Cooling Mode
  ,                                       !- Design Zone Air Distribution Effectiveness in Heating Mode
  No,                                     !- Account for Dedicated Outdoor Air System
  NeutralSupplyAir,                       !- Dedicated Outdoor Air System Control Strategy
  autosize,                               !- Dedicated Outdoor Air Low Setpoint Temperature for Design {C}
  autosize;                               !- Dedicated Outdoor Air High Setpoint Temperature for Design {C}

OS:ZoneHVAC:EquipmentList,
  {b60c1a12-418b-4bd9-998a-29dda130a0d3}, !- Handle
  Zone HVAC Equipment List 1,             !- Name
  {d9c6e504-8951-4f8b-8da4-0e63a9adf652}; !- Thermal Zone

OS:ThermalZone,
  {5d7f5324-ac59-4684-8a1c-ea722e3f7121}, !- Handle
  garage zone,                            !- Name
  ,                                       !- Multiplier
  ,                                       !- Ceiling Height {m}
  ,                                       !- Volume {m3}
  ,                                       !- Floor Area {m2}
  ,                                       !- Zone Inside Convection Algorithm
  ,                                       !- Zone Outside Convection Algorithm
  ,                                       !- Zone Conditioning Equipment List Name
  {d4fdacf6-740c-46d8-8b4e-198f5d92337c}, !- Zone Air Inlet Port List
  {8a4888c8-9265-40b1-8be9-053e0b9ccef8}, !- Zone Air Exhaust Port List
  {7f287c73-0639-448b-8279-f06ae580fe46}, !- Zone Air Node Name
  {f130d96a-5993-4411-ad81-454ae7afdda8}, !- Zone Return Air Port List
  ,                                       !- Primary Daylighting Control Name
  ,                                       !- Fraction of Zone Controlled by Primary Daylighting Control
  ,                                       !- Secondary Daylighting Control Name
  ,                                       !- Fraction of Zone Controlled by Secondary Daylighting Control
  ,                                       !- Illuminance Map Name
  ,                                       !- Group Rendering Name
  ,                                       !- Thermostat Name
  No;                                     !- Use Ideal Air Loads

OS:Node,
  {0e68b78e-bf26-41b8-a057-bdf3c7c530dc}, !- Handle
  Node 2,                                 !- Name
  {7f287c73-0639-448b-8279-f06ae580fe46}, !- Inlet Port
  ;                                       !- Outlet Port

OS:Connection,
  {7f287c73-0639-448b-8279-f06ae580fe46}, !- Handle
  {2b72fa69-4764-42ba-8446-5f0f367efc6f}, !- Name
  {5d7f5324-ac59-4684-8a1c-ea722e3f7121}, !- Source Object
  11,                                     !- Outlet Port
  {0e68b78e-bf26-41b8-a057-bdf3c7c530dc}, !- Target Object
  2;                                      !- Inlet Port

OS:PortList,
  {d4fdacf6-740c-46d8-8b4e-198f5d92337c}, !- Handle
  {44c9d8fe-df1e-4afc-a91f-63fa403d47b6}, !- Name
  {5d7f5324-ac59-4684-8a1c-ea722e3f7121}; !- HVAC Component

OS:PortList,
  {8a4888c8-9265-40b1-8be9-053e0b9ccef8}, !- Handle
  {fe4b88f9-dfd1-4025-be20-4b5faca6c632}, !- Name
  {5d7f5324-ac59-4684-8a1c-ea722e3f7121}; !- HVAC Component

OS:PortList,
  {f130d96a-5993-4411-ad81-454ae7afdda8}, !- Handle
  {e5b8012b-274f-49a1-bcd6-351604f299fc}, !- Name
  {5d7f5324-ac59-4684-8a1c-ea722e3f7121}; !- HVAC Component

OS:Sizing:Zone,
  {5e7b9c85-74bf-4d62-a00e-33bada9be9ee}, !- Handle
  {5d7f5324-ac59-4684-8a1c-ea722e3f7121}, !- Zone or ZoneList Name
  SupplyAirTemperature,                   !- Zone Cooling Design Supply Air Temperature Input Method
  14,                                     !- Zone Cooling Design Supply Air Temperature {C}
  11.11,                                  !- Zone Cooling Design Supply Air Temperature Difference {deltaC}
  SupplyAirTemperature,                   !- Zone Heating Design Supply Air Temperature Input Method
  40,                                     !- Zone Heating Design Supply Air Temperature {C}
  11.11,                                  !- Zone Heating Design Supply Air Temperature Difference {deltaC}
  0.0085,                                 !- Zone Cooling Design Supply Air Humidity Ratio {kg-H2O/kg-air}
  0.008,                                  !- Zone Heating Design Supply Air Humidity Ratio {kg-H2O/kg-air}
  ,                                       !- Zone Heating Sizing Factor
  ,                                       !- Zone Cooling Sizing Factor
  DesignDay,                              !- Cooling Design Air Flow Method
  ,                                       !- Cooling Design Air Flow Rate {m3/s}
  ,                                       !- Cooling Minimum Air Flow per Zone Floor Area {m3/s-m2}
  ,                                       !- Cooling Minimum Air Flow {m3/s}
  ,                                       !- Cooling Minimum Air Flow Fraction
  DesignDay,                              !- Heating Design Air Flow Method
  ,                                       !- Heating Design Air Flow Rate {m3/s}
  ,                                       !- Heating Maximum Air Flow per Zone Floor Area {m3/s-m2}
  ,                                       !- Heating Maximum Air Flow {m3/s}
  ,                                       !- Heating Maximum Air Flow Fraction
  ,                                       !- Design Zone Air Distribution Effectiveness in Cooling Mode
  ,                                       !- Design Zone Air Distribution Effectiveness in Heating Mode
  No,                                     !- Account for Dedicated Outdoor Air System
  NeutralSupplyAir,                       !- Dedicated Outdoor Air System Control Strategy
  autosize,                               !- Dedicated Outdoor Air Low Setpoint Temperature for Design {C}
  autosize;                               !- Dedicated Outdoor Air High Setpoint Temperature for Design {C}

OS:ZoneHVAC:EquipmentList,
  {7af5833f-c62c-4ec4-b224-424c83b0592a}, !- Handle
  Zone HVAC Equipment List 2,             !- Name
  {5d7f5324-ac59-4684-8a1c-ea722e3f7121}; !- Thermal Zone

OS:Space,
  {a217c8af-dcac-4d4f-8aeb-8700cddc11a6}, !- Handle
  garage space,                           !- Name
  {c9495456-020e-4e64-b8f1-08f6a4e00271}, !- Space Type Name
  ,                                       !- Default Construction Set Name
  ,                                       !- Default Schedule Set Name
  -0,                                     !- Direction of Relative North {deg}
  0,                                      !- X Origin {m}
  0,                                      !- Y Origin {m}
  0,                                      !- Z Origin {m}
  ,                                       !- Building Story Name
  {5d7f5324-ac59-4684-8a1c-ea722e3f7121}; !- Thermal Zone Name

OS:Surface,
  {3c1540f8-cb1d-47d4-9cfe-0d020ffaa792}, !- Handle
  Surface 1,                              !- Name
  Floor,                                  !- Surface Type
  ,                                       !- Construction Name
  {a217c8af-dcac-4d4f-8aeb-8700cddc11a6}, !- Space Name
  Foundation,                             !- Outside Boundary Condition
  ,                                       !- Outside Boundary Condition Object
  NoSun,                                  !- Sun Exposure
  NoWind,                                 !- Wind Exposure
  ,                                       !- View Factor to Ground
  ,                                       !- Number of Vertices
  1.51135555430162, -3.6576, 0,           !- X,Y,Z Vertex 1 {m}
  1.51135555430162, 3.6576, 0,            !- X,Y,Z Vertex 2 {m}
  12.4841555543016, 3.6576, 0,            !- X,Y,Z Vertex 3 {m}
  12.4841555543016, -3.6576, 0;           !- X,Y,Z Vertex 4 {m}

OS:Surface,
  {b679614a-0272-4ee2-8147-6537ad37343b}, !- Handle
  Surface 2,                              !- Name
  Wall,                                   !- Surface Type
  ,                                       !- Construction Name
  {a217c8af-dcac-4d4f-8aeb-8700cddc11a6}, !- Space Name
  Surface,                                !- Outside Boundary Condition
  {3793623e-e767-4123-b5b6-39e96f3d5477}, !- Outside Boundary Condition Object
  NoSun,                                  !- Sun Exposure
  NoWind,                                 !- Wind Exposure
  ,                                       !- View Factor to Ground
  ,                                       !- Number of Vertices
  1.51135555430162, 3.6576, 2.4384,       !- X,Y,Z Vertex 1 {m}
  1.51135555430162, 3.6576, 0,            !- X,Y,Z Vertex 2 {m}
  1.51135555430162, 0, 0,                 !- X,Y,Z Vertex 3 {m}
  1.51135555430162, 0, 2.4384;            !- X,Y,Z Vertex 4 {m}

OS:Surface,
  {d4e3d493-9708-4190-bd87-282b83b59f33}, !- Handle
  Surface 3,                              !- Name
  Wall,                                   !- Surface Type
  ,                                       !- Construction Name
  {a217c8af-dcac-4d4f-8aeb-8700cddc11a6}, !- Space Name
  Surface,                                !- Outside Boundary Condition
  {ad263d14-a2a2-419e-b392-ec4f8aa92453}, !- Outside Boundary Condition Object
  NoSun,                                  !- Sun Exposure
  NoWind,                                 !- Wind Exposure
  ,                                       !- View Factor to Ground
  ,                                       !- Number of Vertices
  12.4841555543016, 3.6576, 2.4384,       !- X,Y,Z Vertex 1 {m}
  12.4841555543016, 3.6576, 0,            !- X,Y,Z Vertex 2 {m}
  1.51135555430162, 3.6576, 0,            !- X,Y,Z Vertex 3 {m}
  1.51135555430162, 3.6576, 2.4384;       !- X,Y,Z Vertex 4 {m}

OS:Surface,
  {113ee776-31c9-4c4a-9147-35624ae42348}, !- Handle
  Surface 4,                              !- Name
  Wall,                                   !- Surface Type
  ,                                       !- Construction Name
  {a217c8af-dcac-4d4f-8aeb-8700cddc11a6}, !- Space Name
  Outdoors,                               !- Outside Boundary Condition
  ,                                       !- Outside Boundary Condition Object
  SunExposed,                             !- Sun Exposure
  WindExposed,                            !- Wind Exposure
  ,                                       !- View Factor to Ground
  ,                                       !- Number of Vertices
  12.4841555543016, -3.6576, 2.4384,      !- X,Y,Z Vertex 1 {m}
  12.4841555543016, -3.6576, 0,           !- X,Y,Z Vertex 2 {m}
  12.4841555543016, 3.6576, 0,            !- X,Y,Z Vertex 3 {m}
  12.4841555543016, 3.6576, 2.4384;       !- X,Y,Z Vertex 4 {m}

OS:Surface,
  {c5713852-c163-4f0e-94ce-dbaa113ed817}, !- Handle
  Surface 5,                              !- Name
  Wall,                                   !- Surface Type
  ,                                       !- Construction Name
  {a217c8af-dcac-4d4f-8aeb-8700cddc11a6}, !- Space Name
  Outdoors,                               !- Outside Boundary Condition
  ,                                       !- Outside Boundary Condition Object
  SunExposed,                             !- Sun Exposure
  WindExposed,                            !- Wind Exposure
  ,                                       !- View Factor to Ground
  ,                                       !- Number of Vertices
  1.51135555430162, -3.6576, 2.4384,      !- X,Y,Z Vertex 1 {m}
  1.51135555430162, -3.6576, 0,           !- X,Y,Z Vertex 2 {m}
  12.4841555543016, -3.6576, 0,           !- X,Y,Z Vertex 3 {m}
  12.4841555543016, -3.6576, 2.4384;      !- X,Y,Z Vertex 4 {m}

OS:Surface,
  {48151f8e-a62b-4652-bf77-77a3a33a239a}, !- Handle
  Surface 6,                              !- Name
  RoofCeiling,                            !- Surface Type
  ,                                       !- Construction Name
  {a217c8af-dcac-4d4f-8aeb-8700cddc11a6}, !- Space Name
  Surface,                                !- Outside Boundary Condition
  {713f1f6e-6170-47d4-98db-4676bb021e59}, !- Outside Boundary Condition Object
  NoSun,                                  !- Sun Exposure
  NoWind,                                 !- Wind Exposure
  ,                                       !- View Factor to Ground
  ,                                       !- Number of Vertices
  12.4841555543016, 0, 2.4384,            !- X,Y,Z Vertex 1 {m}
  12.4841555543016, 3.6576, 2.4384,       !- X,Y,Z Vertex 2 {m}
  1.51135555430162, 3.6576, 2.4384,       !- X,Y,Z Vertex 3 {m}
  1.51135555430162, 0, 2.4384;            !- X,Y,Z Vertex 4 {m}

OS:SpaceType,
  {c9495456-020e-4e64-b8f1-08f6a4e00271}, !- Handle
  Space Type 1,                           !- Name
  ,                                       !- Default Construction Set Name
  ,                                       !- Default Schedule Set Name
  ,                                       !- Group Rendering Name
  ,                                       !- Design Specification Outdoor Air Object Name
  ,                                       !- Standards Template
  ,                                       !- Standards Building Type
  garage;                                 !- Standards Space Type

OS:Space,
  {70ae073a-719a-4fa8-984f-cda74eaff750}, !- Handle
  living space,                           !- Name
  {bc295060-fbbc-4c9f-8867-a8af021122ab}, !- Space Type Name
  ,                                       !- Default Construction Set Name
  ,                                       !- Default Schedule Set Name
  -0,                                     !- Direction of Relative North {deg}
  0,                                      !- X Origin {m}
  0,                                      !- Y Origin {m}
  0,                                      !- Z Origin {m}
  ,                                       !- Building Story Name
  {d9c6e504-8951-4f8b-8da4-0e63a9adf652}, !- Thermal Zone Name
  ,                                       !- Part of Total Floor Area
  ,                                       !- Design Specification Outdoor Air Object Name
  {149d4b93-ad1c-47c0-b6cb-787868f148fd}; !- Building Unit Name

OS:Surface,
  {d4ffb2ee-fabc-4b01-95f2-476ff7acbc46}, !- Handle
  Surface 7,                              !- Name
  Floor,                                  !- Surface Type
  ,                                       !- Construction Name
  {70ae073a-719a-4fa8-984f-cda74eaff750}, !- Space Name
  Surface,                                !- Outside Boundary Condition
  {11d72876-4e6a-4a51-88c8-03c9f9d2ac4b}, !- Outside Boundary Condition Object
  NoSun,                                  !- Sun Exposure
  NoWind,                                 !- Wind Exposure
  ,                                       !- View Factor to Ground
  ,                                       !- Number of Vertices
  0, 0, 0,                                !- X,Y,Z Vertex 1 {m}
  0, 6.93564197461201, 0,                 !- X,Y,Z Vertex 2 {m}
  12.4841555543016, 6.93564197461201, 0,  !- X,Y,Z Vertex 3 {m}
  12.4841555543016, 3.6576, 0,            !- X,Y,Z Vertex 4 {m}
  1.51135555430162, 3.6576, 0,            !- X,Y,Z Vertex 5 {m}
  1.51135555430162, 0, 0;                 !- X,Y,Z Vertex 6 {m}

OS:Surface,
  {d2961566-11c1-455a-b699-72280ca52aec}, !- Handle
  Surface 8,                              !- Name
  Wall,                                   !- Surface Type
  ,                                       !- Construction Name
  {70ae073a-719a-4fa8-984f-cda74eaff750}, !- Space Name
  Outdoors,                               !- Outside Boundary Condition
  ,                                       !- Outside Boundary Condition Object
  SunExposed,                             !- Sun Exposure
  WindExposed,                            !- Wind Exposure
  ,                                       !- View Factor to Ground
  ,                                       !- Number of Vertices
  0, 6.93564197461201, 2.4384,            !- X,Y,Z Vertex 1 {m}
  0, 6.93564197461201, 0,                 !- X,Y,Z Vertex 2 {m}
  0, 0, 0,                                !- X,Y,Z Vertex 3 {m}
  0, 0, 2.4384;                           !- X,Y,Z Vertex 4 {m}

OS:Surface,
  {7a3809fa-ce52-46f2-a14f-8a94fc39ed47}, !- Handle
  Surface 9,                              !- Name
  Wall,                                   !- Surface Type
  ,                                       !- Construction Name
  {70ae073a-719a-4fa8-984f-cda74eaff750}, !- Space Name
  Outdoors,                               !- Outside Boundary Condition
  ,                                       !- Outside Boundary Condition Object
  SunExposed,                             !- Sun Exposure
  WindExposed,                            !- Wind Exposure
  ,                                       !- View Factor to Ground
  ,                                       !- Number of Vertices
  12.4841555543016, 6.93564197461201, 2.4384, !- X,Y,Z Vertex 1 {m}
  12.4841555543016, 6.93564197461201, 0,  !- X,Y,Z Vertex 2 {m}
  0, 6.93564197461201, 0,                 !- X,Y,Z Vertex 3 {m}
  0, 6.93564197461201, 2.4384;            !- X,Y,Z Vertex 4 {m}

OS:Surface,
  {c96654de-62e3-42a4-a70a-214d9087cac6}, !- Handle
  Surface 10,                             !- Name
  Wall,                                   !- Surface Type
  ,                                       !- Construction Name
  {70ae073a-719a-4fa8-984f-cda74eaff750}, !- Space Name
  Outdoors,                               !- Outside Boundary Condition
  ,                                       !- Outside Boundary Condition Object
  SunExposed,                             !- Sun Exposure
  WindExposed,                            !- Wind Exposure
  ,                                       !- View Factor to Ground
  ,                                       !- Number of Vertices
  12.4841555543016, 3.6576, 2.4384,       !- X,Y,Z Vertex 1 {m}
  12.4841555543016, 3.6576, 0,            !- X,Y,Z Vertex 2 {m}
  12.4841555543016, 6.93564197461201, 0,  !- X,Y,Z Vertex 3 {m}
  12.4841555543016, 6.93564197461201, 2.4384; !- X,Y,Z Vertex 4 {m}

OS:Surface,
  {ad263d14-a2a2-419e-b392-ec4f8aa92453}, !- Handle
  Surface 11,                             !- Name
  Wall,                                   !- Surface Type
  ,                                       !- Construction Name
  {70ae073a-719a-4fa8-984f-cda74eaff750}, !- Space Name
  Surface,                                !- Outside Boundary Condition
  {d4e3d493-9708-4190-bd87-282b83b59f33}, !- Outside Boundary Condition Object
  NoSun,                                  !- Sun Exposure
  NoWind,                                 !- Wind Exposure
  ,                                       !- View Factor to Ground
  ,                                       !- Number of Vertices
  1.51135555430162, 3.6576, 2.4384,       !- X,Y,Z Vertex 1 {m}
  1.51135555430162, 3.6576, 0,            !- X,Y,Z Vertex 2 {m}
  12.4841555543016, 3.6576, 0,            !- X,Y,Z Vertex 3 {m}
  12.4841555543016, 3.6576, 2.4384;       !- X,Y,Z Vertex 4 {m}

OS:Surface,
  {3793623e-e767-4123-b5b6-39e96f3d5477}, !- Handle
  Surface 12,                             !- Name
  Wall,                                   !- Surface Type
  ,                                       !- Construction Name
  {70ae073a-719a-4fa8-984f-cda74eaff750}, !- Space Name
  Surface,                                !- Outside Boundary Condition
  {b679614a-0272-4ee2-8147-6537ad37343b}, !- Outside Boundary Condition Object
  NoSun,                                  !- Sun Exposure
  NoWind,                                 !- Wind Exposure
  ,                                       !- View Factor to Ground
  ,                                       !- Number of Vertices
  1.51135555430162, 0, 2.4384,            !- X,Y,Z Vertex 1 {m}
  1.51135555430162, 0, 0,                 !- X,Y,Z Vertex 2 {m}
  1.51135555430162, 3.6576, 0,            !- X,Y,Z Vertex 3 {m}
  1.51135555430162, 3.6576, 2.4384;       !- X,Y,Z Vertex 4 {m}

OS:Surface,
  {f68c1cc0-18ae-4ec5-a9f3-0e25990c3c07}, !- Handle
  Surface 13,                             !- Name
  Wall,                                   !- Surface Type
  ,                                       !- Construction Name
  {70ae073a-719a-4fa8-984f-cda74eaff750}, !- Space Name
  Outdoors,                               !- Outside Boundary Condition
  ,                                       !- Outside Boundary Condition Object
  SunExposed,                             !- Sun Exposure
  WindExposed,                            !- Wind Exposure
  ,                                       !- View Factor to Ground
  ,                                       !- Number of Vertices
  0, 0, 2.4384,                           !- X,Y,Z Vertex 1 {m}
  0, 0, 0,                                !- X,Y,Z Vertex 2 {m}
  1.51135555430162, 0, 0,                 !- X,Y,Z Vertex 3 {m}
  1.51135555430162, 0, 2.4384;            !- X,Y,Z Vertex 4 {m}

OS:Surface,
  {7c03b58e-1acc-4d26-968b-0dbe170c9388}, !- Handle
  Surface 14,                             !- Name
  RoofCeiling,                            !- Surface Type
  ,                                       !- Construction Name
  {70ae073a-719a-4fa8-984f-cda74eaff750}, !- Space Name
  Surface,                                !- Outside Boundary Condition
  {d98e99b5-e2b4-4fa6-aa26-39a8f6866f5a}, !- Outside Boundary Condition Object
  NoSun,                                  !- Sun Exposure
  NoWind,                                 !- Wind Exposure
  ,                                       !- View Factor to Ground
  ,                                       !- Number of Vertices
  1.51135555430162, 0, 2.4384,            !- X,Y,Z Vertex 1 {m}
  1.51135555430162, 3.6576, 2.4384,       !- X,Y,Z Vertex 2 {m}
  12.4841555543016, 3.6576, 2.4384,       !- X,Y,Z Vertex 3 {m}
  12.4841555543016, 6.93564197461201, 2.4384, !- X,Y,Z Vertex 4 {m}
  0, 6.93564197461201, 2.4384,            !- X,Y,Z Vertex 5 {m}
  0, 0, 2.4384;                           !- X,Y,Z Vertex 6 {m}

OS:SpaceType,
  {bc295060-fbbc-4c9f-8867-a8af021122ab}, !- Handle
  Space Type 2,                           !- Name
  ,                                       !- Default Construction Set Name
  ,                                       !- Default Schedule Set Name
  ,                                       !- Group Rendering Name
  ,                                       !- Design Specification Outdoor Air Object Name
  ,                                       !- Standards Template
  ,                                       !- Standards Building Type
  living;                                 !- Standards Space Type

OS:Surface,
  {d98e99b5-e2b4-4fa6-aa26-39a8f6866f5a}, !- Handle
  Surface 15,                             !- Name
  Floor,                                  !- Surface Type
  ,                                       !- Construction Name
  {71f08c8d-a88f-4862-bd40-ef7e5217555e}, !- Space Name