!- NOTE: Auto-generated from /test/osw_files/SFD_2000sqft_2story_FB_GRG_UA_3Beds_2Baths_Denver_South_GasWHTank.osw

OS:Version,
  {e10bc512-9058-4c1a-af2d-cdae443d4e99}, !- Handle
  2.9.0;                                  !- Version Identifier

OS:SimulationControl,
  {c4586057-fcc4-4136-81a8-8d42b2516946}, !- Handle
  ,                                       !- Do Zone Sizing Calculation
  ,                                       !- Do System Sizing Calculation
  ,                                       !- Do Plant Sizing Calculation
  No;                                     !- Run Simulation for Sizing Periods

OS:Timestep,
  {32fe3559-a775-4a2c-9431-5d46f6b5f516}, !- Handle
  6;                                      !- Number of Timesteps per Hour

OS:ShadowCalculation,
  {7a58b1c3-954c-4978-9983-4bb8920a47c3}, !- Handle
  20,                                     !- Calculation Frequency
  200;                                    !- Maximum Figures in Shadow Overlap Calculations

OS:SurfaceConvectionAlgorithm:Outside,
  {1e6fe371-3da8-444a-bb11-83de899814c6}, !- Handle
  DOE-2;                                  !- Algorithm

OS:SurfaceConvectionAlgorithm:Inside,
  {9cb6cbac-afa5-4ca0-a65b-999aea21f652}, !- Handle
  TARP;                                   !- Algorithm

OS:ZoneCapacitanceMultiplier:ResearchSpecial,
  {44ebfd62-dac2-4c8f-ba5a-d730f108f29c}, !- Handle
  ,                                       !- Temperature Capacity Multiplier
  15,                                     !- Humidity Capacity Multiplier
  ;                                       !- Carbon Dioxide Capacity Multiplier

OS:RunPeriod,
  {ebbd394c-4b12-48c4-b68e-160decefed68}, !- Handle
  Run Period 1,                           !- Name
  1,                                      !- Begin Month
  1,                                      !- Begin Day of Month
  12,                                     !- End Month
  31,                                     !- End Day of Month
  ,                                       !- Use Weather File Holidays and Special Days
  ,                                       !- Use Weather File Daylight Saving Period
  ,                                       !- Apply Weekend Holiday Rule
  ,                                       !- Use Weather File Rain Indicators
  ,                                       !- Use Weather File Snow Indicators
  ;                                       !- Number of Times Runperiod to be Repeated

OS:YearDescription,
  {69254230-7657-4824-8596-f59d416b0426}, !- Handle
  2007,                                   !- Calendar Year
  ,                                       !- Day of Week for Start Day
  ;                                       !- Is Leap Year

OS:ThermalZone,
  {f5344ba6-b992-4216-8c75-e5d13a651c9f}, !- Handle
  living zone,                            !- Name
  ,                                       !- Multiplier
  ,                                       !- Ceiling Height {m}
  ,                                       !- Volume {m3}
  ,                                       !- Floor Area {m2}
  ,                                       !- Zone Inside Convection Algorithm
  ,                                       !- Zone Outside Convection Algorithm
  ,                                       !- Zone Conditioning Equipment List Name
  {304b70e9-9b3a-49b8-abf9-aae2cbf136b7}, !- Zone Air Inlet Port List
  {c559a6ff-2b02-4749-a45d-ec721267ef79}, !- Zone Air Exhaust Port List
  {f267e75f-c882-49ef-8a94-6131db41c8c4}, !- Zone Air Node Name
  {903efffd-d91d-4987-983e-bdeb041b95b9}, !- Zone Return Air Port List
  ,                                       !- Primary Daylighting Control Name
  ,                                       !- Fraction of Zone Controlled by Primary Daylighting Control
  ,                                       !- Secondary Daylighting Control Name
  ,                                       !- Fraction of Zone Controlled by Secondary Daylighting Control
  ,                                       !- Illuminance Map Name
  ,                                       !- Group Rendering Name
  ,                                       !- Thermostat Name
  No;                                     !- Use Ideal Air Loads

OS:Node,
  {ce9cd41f-3011-4f62-9e5c-e807a268a8d6}, !- Handle
  Node 1,                                 !- Name
  {f267e75f-c882-49ef-8a94-6131db41c8c4}, !- Inlet Port
  ;                                       !- Outlet Port

OS:Connection,
  {f267e75f-c882-49ef-8a94-6131db41c8c4}, !- Handle
  {6cfd5a9b-ad94-4443-8e9d-f7c2c1ea0cb6}, !- Name
  {f5344ba6-b992-4216-8c75-e5d13a651c9f}, !- Source Object
  11,                                     !- Outlet Port
  {ce9cd41f-3011-4f62-9e5c-e807a268a8d6}, !- Target Object
  2;                                      !- Inlet Port

OS:PortList,
  {304b70e9-9b3a-49b8-abf9-aae2cbf136b7}, !- Handle
  {0687f54e-e984-4520-8e93-301a61e4e3ba}, !- Name
  {f5344ba6-b992-4216-8c75-e5d13a651c9f}; !- HVAC Component

OS:PortList,
  {c559a6ff-2b02-4749-a45d-ec721267ef79}, !- Handle
  {0191697d-ef3e-4e80-a370-9f66fccea87d}, !- Name
  {f5344ba6-b992-4216-8c75-e5d13a651c9f}; !- HVAC Component

OS:PortList,
  {903efffd-d91d-4987-983e-bdeb041b95b9}, !- Handle
  {bd7580fc-d1ec-4d46-8dc0-345303ffa9c2}, !- Name
  {f5344ba6-b992-4216-8c75-e5d13a651c9f}; !- HVAC Component

OS:Sizing:Zone,
  {b6bc81e3-f5b4-4d27-b5bb-524b09c979d1}, !- Handle
  {f5344ba6-b992-4216-8c75-e5d13a651c9f}, !- Zone or ZoneList Name
  SupplyAirTemperature,                   !- Zone Cooling Design Supply Air Temperature Input Method
  14,                                     !- Zone Cooling Design Supply Air Temperature {C}
  11.11,                                  !- Zone Cooling Design Supply Air Temperature Difference {deltaC}
  SupplyAirTemperature,                   !- Zone Heating Design Supply Air Temperature Input Method
  40,                                     !- Zone Heating Design Supply Air Temperature {C}
  11.11,                                  !- Zone Heating Design Supply Air Temperature Difference {deltaC}
  0.0085,                                 !- Zone Cooling Design Supply Air Humidity Ratio {kg-H2O/kg-air}
  0.008,                                  !- Zone Heating Design Supply Air Humidity Ratio {kg-H2O/kg-air}
  ,                                       !- Zone Heating Sizing Factor
  ,                                       !- Zone Cooling Sizing Factor
  DesignDay,                              !- Cooling Design Air Flow Method
  ,                                       !- Cooling Design Air Flow Rate {m3/s}
  ,                                       !- Cooling Minimum Air Flow per Zone Floor Area {m3/s-m2}
  ,                                       !- Cooling Minimum Air Flow {m3/s}
  ,                                       !- Cooling Minimum Air Flow Fraction
  DesignDay,                              !- Heating Design Air Flow Method
  ,                                       !- Heating Design Air Flow Rate {m3/s}
  ,                                       !- Heating Maximum Air Flow per Zone Floor Area {m3/s-m2}
  ,                                       !- Heating Maximum Air Flow {m3/s}
  ,                                       !- Heating Maximum Air Flow Fraction
  ,                                       !- Design Zone Air Distribution Effectiveness in Cooling Mode
  ,                                       !- Design Zone Air Distribution Effectiveness in Heating Mode
  No,                                     !- Account for Dedicated Outdoor Air System
  NeutralSupplyAir,                       !- Dedicated Outdoor Air System Control Strategy
  autosize,                               !- Dedicated Outdoor Air Low Setpoint Temperature for Design {C}
  autosize;                               !- Dedicated Outdoor Air High Setpoint Temperature for Design {C}

OS:ZoneHVAC:EquipmentList,
  {6d0c5137-330d-4a3b-a9dc-986ae182561d}, !- Handle
  Zone HVAC Equipment List 1,             !- Name
  {f5344ba6-b992-4216-8c75-e5d13a651c9f}; !- Thermal Zone

OS:ThermalZone,
  {37ca633c-1712-49f0-bfa9-f9854f6a960d}, !- Handle
  garage zone,                            !- Name
  ,                                       !- Multiplier
  ,                                       !- Ceiling Height {m}
  ,                                       !- Volume {m3}
  ,                                       !- Floor Area {m2}
  ,                                       !- Zone Inside Convection Algorithm
  ,                                       !- Zone Outside Convection Algorithm
  ,                                       !- Zone Conditioning Equipment List Name
  {1c73d1e7-05e9-4dd6-b585-f007d5339eed}, !- Zone Air Inlet Port List
  {9fd3ea24-3fc3-44f7-bcdd-d9b80d6eb08c}, !- Zone Air Exhaust Port List
  {53b56b50-ff1c-4e69-aad1-e054d3ed8788}, !- Zone Air Node Name
  {f0d7733b-1de2-4d1a-ad8f-364f534491ed}, !- Zone Return Air Port List
  ,                                       !- Primary Daylighting Control Name
  ,                                       !- Fraction of Zone Controlled by Primary Daylighting Control
  ,                                       !- Secondary Daylighting Control Name
  ,                                       !- Fraction of Zone Controlled by Secondary Daylighting Control
  ,                                       !- Illuminance Map Name
  ,                                       !- Group Rendering Name
  ,                                       !- Thermostat Name
  No;                                     !- Use Ideal Air Loads

OS:Node,
  {c7f2f07c-e435-46b4-b64a-ed332cc347c4}, !- Handle
  Node 2,                                 !- Name
  {53b56b50-ff1c-4e69-aad1-e054d3ed8788}, !- Inlet Port
  ;                                       !- Outlet Port

OS:Connection,
  {53b56b50-ff1c-4e69-aad1-e054d3ed8788}, !- Handle
  {e5c11dc4-b573-427e-be96-1a26c0cd46f6}, !- Name
  {37ca633c-1712-49f0-bfa9-f9854f6a960d}, !- Source Object
  11,                                     !- Outlet Port
  {c7f2f07c-e435-46b4-b64a-ed332cc347c4}, !- Target Object
  2;                                      !- Inlet Port

OS:PortList,
  {1c73d1e7-05e9-4dd6-b585-f007d5339eed}, !- Handle
  {90bc2522-d2f7-4fc0-8813-8b991f2fdce7}, !- Name
  {37ca633c-1712-49f0-bfa9-f9854f6a960d}; !- HVAC Component

OS:PortList,
  {9fd3ea24-3fc3-44f7-bcdd-d9b80d6eb08c}, !- Handle
  {87362067-e8ca-49f3-8d19-8cb171335dce}, !- Name
  {37ca633c-1712-49f0-bfa9-f9854f6a960d}; !- HVAC Component

OS:PortList,
  {f0d7733b-1de2-4d1a-ad8f-364f534491ed}, !- Handle
  {698de592-0059-4c2c-9111-cc4f82b5719a}, !- Name
  {37ca633c-1712-49f0-bfa9-f9854f6a960d}; !- HVAC Component

OS:Sizing:Zone,
  {cd8bb905-d589-4bc8-981a-ba405211ed04}, !- Handle
  {37ca633c-1712-49f0-bfa9-f9854f6a960d}, !- Zone or ZoneList Name
  SupplyAirTemperature,                   !- Zone Cooling Design Supply Air Temperature Input Method
  14,                                     !- Zone Cooling Design Supply Air Temperature {C}
  11.11,                                  !- Zone Cooling Design Supply Air Temperature Difference {deltaC}
  SupplyAirTemperature,                   !- Zone Heating Design Supply Air Temperature Input Method
  40,                                     !- Zone Heating Design Supply Air Temperature {C}
  11.11,                                  !- Zone Heating Design Supply Air Temperature Difference {deltaC}
  0.0085,                                 !- Zone Cooling Design Supply Air Humidity Ratio {kg-H2O/kg-air}
  0.008,                                  !- Zone Heating Design Supply Air Humidity Ratio {kg-H2O/kg-air}
  ,                                       !- Zone Heating Sizing Factor
  ,                                       !- Zone Cooling Sizing Factor
  DesignDay,                              !- Cooling Design Air Flow Method
  ,                                       !- Cooling Design Air Flow Rate {m3/s}
  ,                                       !- Cooling Minimum Air Flow per Zone Floor Area {m3/s-m2}
  ,                                       !- Cooling Minimum Air Flow {m3/s}
  ,                                       !- Cooling Minimum Air Flow Fraction
  DesignDay,                              !- Heating Design Air Flow Method
  ,                                       !- Heating Design Air Flow Rate {m3/s}
  ,                                       !- Heating Maximum Air Flow per Zone Floor Area {m3/s-m2}
  ,                                       !- Heating Maximum Air Flow {m3/s}
  ,                                       !- Heating Maximum Air Flow Fraction
  ,                                       !- Design Zone Air Distribution Effectiveness in Cooling Mode
  ,                                       !- Design Zone Air Distribution Effectiveness in Heating Mode
  No,                                     !- Account for Dedicated Outdoor Air System
  NeutralSupplyAir,                       !- Dedicated Outdoor Air System Control Strategy
  autosize,                               !- Dedicated Outdoor Air Low Setpoint Temperature for Design {C}
  autosize;                               !- Dedicated Outdoor Air High Setpoint Temperature for Design {C}

OS:ZoneHVAC:EquipmentList,
  {045382ac-fcf6-4729-b832-db18e3f94e22}, !- Handle
  Zone HVAC Equipment List 2,             !- Name
  {37ca633c-1712-49f0-bfa9-f9854f6a960d}; !- Thermal Zone

OS:Space,
  {fe97d4c6-c5f6-4c5c-af46-0b562136adab}, !- Handle
  garage space,                           !- Name
  {b67e64dd-577f-4c58-a474-2b95e9f26ad1}, !- Space Type Name
  ,                                       !- Default Construction Set Name
  ,                                       !- Default Schedule Set Name
  -0,                                     !- Direction of Relative North {deg}
  0,                                      !- X Origin {m}
  0,                                      !- Y Origin {m}
  0,                                      !- Z Origin {m}
  ,                                       !- Building Story Name
  {37ca633c-1712-49f0-bfa9-f9854f6a960d}; !- Thermal Zone Name

OS:Surface,
  {26ef8432-fff0-407c-ba24-3308bef86f43}, !- Handle
  Surface 1,                              !- Name
  Floor,                                  !- Surface Type
  ,                                       !- Construction Name
  {fe97d4c6-c5f6-4c5c-af46-0b562136adab}, !- Space Name
  Foundation,                             !- Outside Boundary Condition
  ,                                       !- Outside Boundary Condition Object
  NoSun,                                  !- Sun Exposure
  NoWind,                                 !- Wind Exposure
  ,                                       !- View Factor to Ground
  ,                                       !- Number of Vertices
  5.57695129776527, -3.048, 0,            !- X,Y,Z Vertex 1 {m}
  5.57695129776527, 3.048, 0,             !- X,Y,Z Vertex 2 {m}
  11.6729512977653, 3.048, 0,             !- X,Y,Z Vertex 3 {m}
  11.6729512977653, -3.048, 0;            !- X,Y,Z Vertex 4 {m}

OS:Surface,
  {33f3a544-c993-4f30-9475-6eca74160edb}, !- Handle
  Surface 2,                              !- Name
  Wall,                                   !- Surface Type
  ,                                       !- Construction Name
  {fe97d4c6-c5f6-4c5c-af46-0b562136adab}, !- Space Name
  Surface,                                !- Outside Boundary Condition
  {b1066e6a-4801-4cb6-bd32-f97d1f66fa4d}, !- Outside Boundary Condition Object
  NoSun,                                  !- Sun Exposure
  NoWind,                                 !- Wind Exposure
  ,                                       !- View Factor to Ground
  ,                                       !- Number of Vertices
  5.57695129776527, 3.048, 2.4384,        !- X,Y,Z Vertex 1 {m}
  5.57695129776527, 3.048, 0,             !- X,Y,Z Vertex 2 {m}
  5.57695129776527, 0, 0,                 !- X,Y,Z Vertex 3 {m}
  5.57695129776527, 0, 2.4384;            !- X,Y,Z Vertex 4 {m}

OS:Surface,
  {b951df8d-a01f-48fb-b6de-9935f818d63e}, !- Handle
  Surface 3,                              !- Name
  Wall,                                   !- Surface Type
  ,                                       !- Construction Name
  {fe97d4c6-c5f6-4c5c-af46-0b562136adab}, !- Space Name
  Surface,                                !- Outside Boundary Condition
  {b617629b-eff3-4bcd-96a2-c0bfbec2b997}, !- Outside Boundary Condition Object
  NoSun,                                  !- Sun Exposure
  NoWind,                                 !- Wind Exposure
  ,                                       !- View Factor to Ground
  ,                                       !- Number of Vertices
  11.6729512977653, 3.048, 2.4384,        !- X,Y,Z Vertex 1 {m}
  11.6729512977653, 3.048, 0,             !- X,Y,Z Vertex 2 {m}
  5.57695129776527, 3.048, 0,             !- X,Y,Z Vertex 3 {m}
  5.57695129776527, 3.048, 2.4384;        !- X,Y,Z Vertex 4 {m}

OS:Surface,
  {86c5bfad-5e77-4734-a4f8-f27237fabcd0}, !- Handle
  Surface 4,                              !- Name
  Wall,                                   !- Surface Type
  ,                                       !- Construction Name
  {fe97d4c6-c5f6-4c5c-af46-0b562136adab}, !- Space Name
  Outdoors,                               !- Outside Boundary Condition
  ,                                       !- Outside Boundary Condition Object
  SunExposed,                             !- Sun Exposure
  WindExposed,                            !- Wind Exposure
  ,                                       !- View Factor to Ground
  ,                                       !- Number of Vertices
  11.6729512977653, -3.048, 2.4384,       !- X,Y,Z Vertex 1 {m}
  11.6729512977653, -3.048, 0,            !- X,Y,Z Vertex 2 {m}
  11.6729512977653, 3.048, 0,             !- X,Y,Z Vertex 3 {m}
  11.6729512977653, 3.048, 2.4384;        !- X,Y,Z Vertex 4 {m}

OS:Surface,
  {e22840b4-2829-4209-939e-d90b50cfbe7a}, !- Handle
  Surface 5,                              !- Name
  Wall,                                   !- Surface Type
  ,                                       !- Construction Name
  {fe97d4c6-c5f6-4c5c-af46-0b562136adab}, !- Space Name
  Outdoors,                               !- Outside Boundary Condition
  ,                                       !- Outside Boundary Condition Object
  SunExposed,                             !- Sun Exposure
  WindExposed,                            !- Wind Exposure
  ,                                       !- View Factor to Ground
  ,                                       !- Number of Vertices
  5.57695129776527, -3.048, 2.4384,       !- X,Y,Z Vertex 1 {m}
  5.57695129776527, -3.048, 0,            !- X,Y,Z Vertex 2 {m}
  11.6729512977653, -3.048, 0,            !- X,Y,Z Vertex 3 {m}
  11.6729512977653, -3.048, 2.4384;       !- X,Y,Z Vertex 4 {m}

OS:Surface,
  {a53fb792-62c3-4d30-9820-e522050472a9}, !- Handle
  Surface 6,                              !- Name
  RoofCeiling,                            !- Surface Type
  ,                                       !- Construction Name
  {fe97d4c6-c5f6-4c5c-af46-0b562136adab}, !- Space Name
  Surface,                                !- Outside Boundary Condition
  {55a4b780-a516-4643-beaf-ad9defe85cc3}, !- Outside Boundary Condition Object
  NoSun,                                  !- Sun Exposure
  NoWind,                                 !- Wind Exposure
  ,                                       !- View Factor to Ground
  ,                                       !- Number of Vertices
  11.6729512977653, -3.048, 2.4384,       !- X,Y,Z Vertex 1 {m}
  11.6729512977653, 3.048, 2.4384,        !- X,Y,Z Vertex 2 {m}
  5.57695129776527, 3.048, 2.4384,        !- X,Y,Z Vertex 3 {m}
  5.57695129776527, -3.048, 2.4384;       !- X,Y,Z Vertex 4 {m}

OS:SpaceType,
  {b67e64dd-577f-4c58-a474-2b95e9f26ad1}, !- Handle
  Space Type 1,                           !- Name
  ,                                       !- Default Construction Set Name
  ,                                       !- Default Schedule Set Name
  ,                                       !- Group Rendering Name
  ,                                       !- Design Specification Outdoor Air Object Name
  ,                                       !- Standards Template
  ,                                       !- Standards Building Type
  garage;                                 !- Standards Space Type

OS:Space,
  {f25a821f-6b34-4fdd-8043-36f3173c896e}, !- Handle
  living space,                           !- Name
  {3dddd500-8368-4155-84e4-c72c632d572a}, !- Space Type Name
  ,                                       !- Default Construction Set Name
  ,                                       !- Default Schedule Set Name
  -0,                                     !- Direction of Relative North {deg}
  0,                                      !- X Origin {m}
  0,                                      !- Y Origin {m}
  0,                                      !- Z Origin {m}
  ,                                       !- Building Story Name
  {f5344ba6-b992-4216-8c75-e5d13a651c9f}, !- Thermal Zone Name
  ,                                       !- Part of Total Floor Area
  ,                                       !- Design Specification Outdoor Air Object Name
  {3ca1f0b6-247e-4d24-ae86-36d85287a06f}; !- Building Unit Name

OS:Surface,
  {7f1234d8-5dc6-4ddd-95a3-cb2e59ee84d6}, !- Handle
  Surface 7,                              !- Name
  Floor,                                  !- Surface Type
  ,                                       !- Construction Name
  {f25a821f-6b34-4fdd-8043-36f3173c896e}, !- Space Name
  Surface,                                !- Outside Boundary Condition
  {210a82b5-dec1-4ef0-b4ec-1332ca8e8a1f}, !- Outside Boundary Condition Object
  NoSun,                                  !- Sun Exposure
  NoWind,                                 !- Wind Exposure
  ,                                       !- View Factor to Ground
  ,                                       !- Number of Vertices
  0, 0, 0,                                !- X,Y,Z Vertex 1 {m}
  0, 5.83647564888264, 0,                 !- X,Y,Z Vertex 2 {m}
  11.6729512977653, 5.83647564888264, 0,  !- X,Y,Z Vertex 3 {m}
  11.6729512977653, 3.048, 0,             !- X,Y,Z Vertex 4 {m}
  5.57695129776527, 3.048, 0,             !- X,Y,Z Vertex 5 {m}
  5.57695129776527, 0, 0;                 !- X,Y,Z Vertex 6 {m}

OS:Surface,
  {3d7d7774-5fb8-4c73-832a-747f51d6ded1}, !- Handle
  Surface 8,                              !- Name
  Wall,                                   !- Surface Type
  ,                                       !- Construction Name
  {f25a821f-6b34-4fdd-8043-36f3173c896e}, !- Space Name
  Outdoors,                               !- Outside Boundary Condition
  ,                                       !- Outside Boundary Condition Object
  SunExposed,                             !- Sun Exposure
  WindExposed,                            !- Wind Exposure
  ,                                       !- View Factor to Ground
  ,                                       !- Number of Vertices
  0, 5.83647564888264, 2.4384,            !- X,Y,Z Vertex 1 {m}
  0, 5.83647564888264, 0,                 !- X,Y,Z Vertex 2 {m}
  0, 0, 0,                                !- X,Y,Z Vertex 3 {m}
  0, 0, 2.4384;                           !- X,Y,Z Vertex 4 {m}

OS:Surface,
  {8f9cd84e-945c-408c-b26c-47c625769944}, !- Handle
  Surface 9,                              !- Name
  Wall,                                   !- Surface Type
  ,                                       !- Construction Name
  {f25a821f-6b34-4fdd-8043-36f3173c896e}, !- Space Name
  Outdoors,                               !- Outside Boundary Condition
  ,                                       !- Outside Boundary Condition Object
  SunExposed,                             !- Sun Exposure
  WindExposed,                            !- Wind Exposure
  ,                                       !- View Factor to Ground
  ,                                       !- Number of Vertices
  11.6729512977653, 5.83647564888264, 2.4384, !- X,Y,Z Vertex 1 {m}
  11.6729512977653, 5.83647564888264, 0,  !- X,Y,Z Vertex 2 {m}
  0, 5.83647564888264, 0,                 !- X,Y,Z Vertex 3 {m}
  0, 5.83647564888264, 2.4384;            !- X,Y,Z Vertex 4 {m}

OS:Surface,
  {412b2b50-6d73-47cb-a848-4ec57024449d}, !- Handle
  Surface 10,                             !- Name
  Wall,                                   !- Surface Type
  ,                                       !- Construction Name
  {f25a821f-6b34-4fdd-8043-36f3173c896e}, !- Space Name
  Outdoors,                               !- Outside Boundary Condition
  ,                                       !- Outside Boundary Condition Object
  SunExposed,                             !- Sun Exposure
  WindExposed,                            !- Wind Exposure
  ,                                       !- View Factor to Ground
  ,                                       !- Number of Vertices
  11.6729512977653, 3.048, 2.4384,        !- X,Y,Z Vertex 1 {m}
  11.6729512977653, 3.048, 0,             !- X,Y,Z Vertex 2 {m}
  11.6729512977653, 5.83647564888264, 0,  !- X,Y,Z Vertex 3 {m}
  11.6729512977653, 5.83647564888264, 2.4384; !- X,Y,Z Vertex 4 {m}

OS:Surface,
  {b617629b-eff3-4bcd-96a2-c0bfbec2b997}, !- Handle
  Surface 11,                             !- Name
  Wall,                                   !- Surface Type
  ,                                       !- Construction Name
  {f25a821f-6b34-4fdd-8043-36f3173c896e}, !- Space Name
  Surface,                                !- Outside Boundary Condition
  {b951df8d-a01f-48fb-b6de-9935f818d63e}, !- Outside Boundary Condition Object
  NoSun,                                  !- Sun Exposure
  NoWind,                                 !- Wind Exposure
  ,                                       !- View Factor to Ground
  ,                                       !- Number of Vertices
  5.57695129776527, 3.048, 2.4384,        !- X,Y,Z Vertex 1 {m}
  5.57695129776527, 3.048, 0,             !- X,Y,Z Vertex 2 {m}
  11.6729512977653, 3.048, 0,             !- X,Y,Z Vertex 3 {m}
  11.6729512977653, 3.048, 2.4384;        !- X,Y,Z Vertex 4 {m}

OS:Surface,
  {b1066e6a-4801-4cb6-bd32-f97d1f66fa4d}, !- Handle
  Surface 12,                             !- Name
  Wall,                                   !- Surface Type
  ,                                       !- Construction Name
  {f25a821f-6b34-4fdd-8043-36f3173c896e}, !- Space Name
  Surface,                                !- Outside Boundary Condition
  {33f3a544-c993-4f30-9475-6eca74160edb}, !- Outside Boundary Condition Object
  NoSun,                                  !- Sun Exposure
  NoWind,                                 !- Wind Exposure
  ,                                       !- View Factor to Ground
  ,                                       !- Number of Vertices
  5.57695129776527, 0, 2.4384,            !- X,Y,Z Vertex 1 {m}
  5.57695129776527, 0, 0,                 !- X,Y,Z Vertex 2 {m}
  5.57695129776527, 3.048, 0,             !- X,Y,Z Vertex 3 {m}
  5.57695129776527, 3.048, 2.4384;        !- X,Y,Z Vertex 4 {m}

OS:Surface,
  {b7d9a3eb-0d8e-4f93-b188-790f3cec1827}, !- Handle
  Surface 13,                             !- Name
  Wall,                                   !- Surface Type
  ,                                       !- Construction Name
  {f25a821f-6b34-4fdd-8043-36f3173c896e}, !- Space Name
  Outdoors,                               !- Outside Boundary Condition
  ,                                       !- Outside Boundary Condition Object
  SunExposed,                             !- Sun Exposure
  WindExposed,                            !- Wind Exposure
  ,                                       !- View Factor to Ground
  ,                                       !- Number of Vertices
  0, 0, 2.4384,                           !- X,Y,Z Vertex 1 {m}
  0, 0, 0,                                !- X,Y,Z Vertex 2 {m}
  5.57695129776527, 0, 0,                 !- X,Y,Z Vertex 3 {m}
  5.57695129776527, 0, 2.4384;            !- X,Y,Z Vertex 4 {m}

OS:Surface,
  {5a6cab8f-eba3-41a2-8aa2-ee75ce9d1165}, !- Handle
  Surface 14,                             !- Name
  RoofCeiling,                            !- Surface Type
  ,                                       !- Construction Name
  {f25a821f-6b34-4fdd-8043-36f3173c896e}, !- Space Name
  Surface,                                !- Outside Boundary Condition
  {dc93bec4-7ebf-4d84-b48b-51e3011c81c9}, !- Outside Boundary Condition Object
  NoSun,                                  !- Sun Exposure
  NoWind,                                 !- Wind Exposure
  ,                                       !- View Factor to Ground
  ,                                       !- Number of Vertices
  5.57695129776527, 0, 2.4384,            !- X,Y,Z Vertex 1 {m}
  5.57695129776527, 3.048, 2.4384,        !- X,Y,Z Vertex 2 {m}
  11.6729512977653, 3.048, 2.4384,        !- X,Y,Z Vertex 3 {m}
  11.6729512977653, 5.83647564888264, 2.4384, !- X,Y,Z Vertex 4 {m}
  0, 5.83647564888264, 2.4384,            !- X,Y,Z Vertex 5 {m}
  0, 0, 2.4384;                           !- X,Y,Z Vertex 6 {m}

OS:SpaceType,
  {3dddd500-8368-4155-84e4-c72c632d572a}, !- Handle
  Space Type 2,                           !- Name
  ,                                       !- Default Construction Set Name
  ,                                       !- Default Schedule Set Name
  ,                                       !- Group Rendering Name
  ,                                       !- Design Specification Outdoor Air Object Name
  ,                                       !- Standards Template
  ,                                       !- Standards Building Type
  living;                                 !- Standards Space Type

OS:Space,
  {fcbb8cac-0d5b-4cd2-b24d-d84324ca7f3b}, !- Handle
  living space|story 2,                   !- Name
  {3dddd500-8368-4155-84e4-c72c632d572a}, !- Space Type Name
  ,                                       !- Default Construction Set Name