!- NOTE: Auto-generated from /test/osw_files/SFD_2000sqft_2story_SL_GRG_UA.osw

OS:Version,
  {45f594d1-4259-4da6-8dba-9fefa6c6b1d5}, !- Handle
  2.9.0;                                  !- Version Identifier

OS:SimulationControl,
  {7fe97b94-f2fd-4103-84b9-57d275cf17c8}, !- Handle
  ,                                       !- Do Zone Sizing Calculation
  ,                                       !- Do System Sizing Calculation
  ,                                       !- Do Plant Sizing Calculation
  No;                                     !- Run Simulation for Sizing Periods

OS:Timestep,
  {4ebe85c6-ca40-417b-abd9-29bfdc5e09fa}, !- Handle
  6;                                      !- Number of Timesteps per Hour

OS:ShadowCalculation,
  {a613f4c1-afef-4d58-a54f-584c8f662111}, !- Handle
  20,                                     !- Calculation Frequency
  200;                                    !- Maximum Figures in Shadow Overlap Calculations

OS:SurfaceConvectionAlgorithm:Outside,
  {00830237-e9fd-4c6a-8021-0165595d2153}, !- Handle
  DOE-2;                                  !- Algorithm

OS:SurfaceConvectionAlgorithm:Inside,
  {1de3de0e-9c35-4ab9-b091-4516e5a996e6}, !- Handle
  TARP;                                   !- Algorithm

OS:ZoneCapacitanceMultiplier:ResearchSpecial,
  {2ed50095-c7dc-4548-b868-60ee4f94b4d4}, !- Handle
  ,                                       !- Temperature Capacity Multiplier
  15,                                     !- Humidity Capacity Multiplier
  ;                                       !- Carbon Dioxide Capacity Multiplier

OS:RunPeriod,
  {62bcd0fc-71c3-4842-81f7-a8025cc426ec}, !- Handle
  Run Period 1,                           !- Name
  1,                                      !- Begin Month
  1,                                      !- Begin Day of Month
  12,                                     !- End Month
  31,                                     !- End Day of Month
  ,                                       !- Use Weather File Holidays and Special Days
  ,                                       !- Use Weather File Daylight Saving Period
  ,                                       !- Apply Weekend Holiday Rule
  ,                                       !- Use Weather File Rain Indicators
  ,                                       !- Use Weather File Snow Indicators
  ;                                       !- Number of Times Runperiod to be Repeated

OS:YearDescription,
  {dcae4f1f-5fba-4b67-86a2-2d386a7458fe}, !- Handle
  2007,                                   !- Calendar Year
  ,                                       !- Day of Week for Start Day
  ;                                       !- Is Leap Year

OS:ThermalZone,
  {5c361135-6585-4407-9256-94788ad21f05}, !- Handle
  living zone,                            !- Name
  ,                                       !- Multiplier
  ,                                       !- Ceiling Height {m}
  ,                                       !- Volume {m3}
  ,                                       !- Floor Area {m2}
  ,                                       !- Zone Inside Convection Algorithm
  ,                                       !- Zone Outside Convection Algorithm
  ,                                       !- Zone Conditioning Equipment List Name
  {163f2c17-3c34-49d0-b32c-fa47f6ad94fa}, !- Zone Air Inlet Port List
  {9e095237-b44c-4e44-a110-db1e4120859d}, !- Zone Air Exhaust Port List
  {8493e41f-fbbd-45f3-b8a8-db4f5557c2e9}, !- Zone Air Node Name
  {0d060d03-22f3-4bfd-9c3b-9c11fffe6066}, !- Zone Return Air Port List
  ,                                       !- Primary Daylighting Control Name
  ,                                       !- Fraction of Zone Controlled by Primary Daylighting Control
  ,                                       !- Secondary Daylighting Control Name
  ,                                       !- Fraction of Zone Controlled by Secondary Daylighting Control
  ,                                       !- Illuminance Map Name
  ,                                       !- Group Rendering Name
  ,                                       !- Thermostat Name
  No;                                     !- Use Ideal Air Loads

OS:Node,
  {081f221b-04a0-4296-85ef-3bcf113aafd1}, !- Handle
  Node 1,                                 !- Name
  {8493e41f-fbbd-45f3-b8a8-db4f5557c2e9}, !- Inlet Port
  ;                                       !- Outlet Port

OS:Connection,
  {8493e41f-fbbd-45f3-b8a8-db4f5557c2e9}, !- Handle
  {10d6ea1b-b191-44be-8ae3-732754c68da4}, !- Name
  {5c361135-6585-4407-9256-94788ad21f05}, !- Source Object
  11,                                     !- Outlet Port
  {081f221b-04a0-4296-85ef-3bcf113aafd1}, !- Target Object
  2;                                      !- Inlet Port

OS:PortList,
  {163f2c17-3c34-49d0-b32c-fa47f6ad94fa}, !- Handle
  {fd7ff016-e9df-4d2f-a12e-aa9131bd0cc6}, !- Name
  {5c361135-6585-4407-9256-94788ad21f05}; !- HVAC Component

OS:PortList,
  {9e095237-b44c-4e44-a110-db1e4120859d}, !- Handle
  {e8364d65-79fe-417d-b017-aa81a1d14dc0}, !- Name
  {5c361135-6585-4407-9256-94788ad21f05}; !- HVAC Component

OS:PortList,
  {0d060d03-22f3-4bfd-9c3b-9c11fffe6066}, !- Handle
  {06b447a4-d595-4118-85d5-63523c5bf62a}, !- Name
  {5c361135-6585-4407-9256-94788ad21f05}; !- HVAC Component

OS:Sizing:Zone,
  {170cfba7-a53c-482a-b927-13d204e2c6fd}, !- Handle
  {5c361135-6585-4407-9256-94788ad21f05}, !- Zone or ZoneList Name
  SupplyAirTemperature,                   !- Zone Cooling Design Supply Air Temperature Input Method
  14,                                     !- Zone Cooling Design Supply Air Temperature {C}
  11.11,                                  !- Zone Cooling Design Supply Air Temperature Difference {deltaC}
  SupplyAirTemperature,                   !- Zone Heating Design Supply Air Temperature Input Method
  40,                                     !- Zone Heating Design Supply Air Temperature {C}
  11.11,                                  !- Zone Heating Design Supply Air Temperature Difference {deltaC}
  0.0085,                                 !- Zone Cooling Design Supply Air Humidity Ratio {kg-H2O/kg-air}
  0.008,                                  !- Zone Heating Design Supply Air Humidity Ratio {kg-H2O/kg-air}
  ,                                       !- Zone Heating Sizing Factor
  ,                                       !- Zone Cooling Sizing Factor
  DesignDay,                              !- Cooling Design Air Flow Method
  ,                                       !- Cooling Design Air Flow Rate {m3/s}
  ,                                       !- Cooling Minimum Air Flow per Zone Floor Area {m3/s-m2}
  ,                                       !- Cooling Minimum Air Flow {m3/s}
  ,                                       !- Cooling Minimum Air Flow Fraction
  DesignDay,                              !- Heating Design Air Flow Method
  ,                                       !- Heating Design Air Flow Rate {m3/s}
  ,                                       !- Heating Maximum Air Flow per Zone Floor Area {m3/s-m2}
  ,                                       !- Heating Maximum Air Flow {m3/s}
  ,                                       !- Heating Maximum Air Flow Fraction
  ,                                       !- Design Zone Air Distribution Effectiveness in Cooling Mode
  ,                                       !- Design Zone Air Distribution Effectiveness in Heating Mode
  No,                                     !- Account for Dedicated Outdoor Air System
  NeutralSupplyAir,                       !- Dedicated Outdoor Air System Control Strategy
  autosize,                               !- Dedicated Outdoor Air Low Setpoint Temperature for Design {C}
  autosize;                               !- Dedicated Outdoor Air High Setpoint Temperature for Design {C}

OS:ZoneHVAC:EquipmentList,
  {91cbab14-21a2-48ea-8a26-444ea7feed0e}, !- Handle
  Zone HVAC Equipment List 1,             !- Name
  {5c361135-6585-4407-9256-94788ad21f05}; !- Thermal Zone

OS:ThermalZone,
  {d5cd3fac-c30e-4eb9-b5f0-dfbaf2449ac2}, !- Handle
  garage zone,                            !- Name
  ,                                       !- Multiplier
  ,                                       !- Ceiling Height {m}
  ,                                       !- Volume {m3}
  ,                                       !- Floor Area {m2}
  ,                                       !- Zone Inside Convection Algorithm
  ,                                       !- Zone Outside Convection Algorithm
  ,                                       !- Zone Conditioning Equipment List Name
  {3aabd19d-766a-461b-a575-7f67fd31b9e4}, !- Zone Air Inlet Port List
  {8aece754-c5a0-48f2-a8d2-83e635238085}, !- Zone Air Exhaust Port List
  {3c1a1b58-3855-4fe1-9dce-16e121333c83}, !- Zone Air Node Name
  {552e58f8-7422-4e6f-8b81-1d36ed68f3d9}, !- Zone Return Air Port List
  ,                                       !- Primary Daylighting Control Name
  ,                                       !- Fraction of Zone Controlled by Primary Daylighting Control
  ,                                       !- Secondary Daylighting Control Name
  ,                                       !- Fraction of Zone Controlled by Secondary Daylighting Control
  ,                                       !- Illuminance Map Name
  ,                                       !- Group Rendering Name
  ,                                       !- Thermostat Name
  No;                                     !- Use Ideal Air Loads

OS:Node,
  {3156bc3c-5994-4faf-94c5-e5d3b855346f}, !- Handle
  Node 2,                                 !- Name
  {3c1a1b58-3855-4fe1-9dce-16e121333c83}, !- Inlet Port
  ;                                       !- Outlet Port

OS:Connection,
  {3c1a1b58-3855-4fe1-9dce-16e121333c83}, !- Handle
  {c9788f79-5208-4243-a93e-da8210a73fa7}, !- Name
  {d5cd3fac-c30e-4eb9-b5f0-dfbaf2449ac2}, !- Source Object
  11,                                     !- Outlet Port
  {3156bc3c-5994-4faf-94c5-e5d3b855346f}, !- Target Object
  2;                                      !- Inlet Port

OS:PortList,
  {3aabd19d-766a-461b-a575-7f67fd31b9e4}, !- Handle
  {8cdf7c20-1059-4ce2-867e-b9a83fa391e9}, !- Name
  {d5cd3fac-c30e-4eb9-b5f0-dfbaf2449ac2}; !- HVAC Component

OS:PortList,
  {8aece754-c5a0-48f2-a8d2-83e635238085}, !- Handle
  {1645364a-e05a-454a-a5f2-4cdc5dfcafe4}, !- Name
  {d5cd3fac-c30e-4eb9-b5f0-dfbaf2449ac2}; !- HVAC Component

OS:PortList,
  {552e58f8-7422-4e6f-8b81-1d36ed68f3d9}, !- Handle
  {182ea967-ac50-43eb-8ca3-3e9c7d7b73d2}, !- Name
  {d5cd3fac-c30e-4eb9-b5f0-dfbaf2449ac2}; !- HVAC Component

OS:Sizing:Zone,
  {651c5f33-2b29-4dbf-8782-1355914edb35}, !- Handle
  {d5cd3fac-c30e-4eb9-b5f0-dfbaf2449ac2}, !- Zone or ZoneList Name
  SupplyAirTemperature,                   !- Zone Cooling Design Supply Air Temperature Input Method
  14,                                     !- Zone Cooling Design Supply Air Temperature {C}
  11.11,                                  !- Zone Cooling Design Supply Air Temperature Difference {deltaC}
  SupplyAirTemperature,                   !- Zone Heating Design Supply Air Temperature Input Method
  40,                                     !- Zone Heating Design Supply Air Temperature {C}
  11.11,                                  !- Zone Heating Design Supply Air Temperature Difference {deltaC}
  0.0085,                                 !- Zone Cooling Design Supply Air Humidity Ratio {kg-H2O/kg-air}
  0.008,                                  !- Zone Heating Design Supply Air Humidity Ratio {kg-H2O/kg-air}
  ,                                       !- Zone Heating Sizing Factor
  ,                                       !- Zone Cooling Sizing Factor
  DesignDay,                              !- Cooling Design Air Flow Method
  ,                                       !- Cooling Design Air Flow Rate {m3/s}
  ,                                       !- Cooling Minimum Air Flow per Zone Floor Area {m3/s-m2}
  ,                                       !- Cooling Minimum Air Flow {m3/s}
  ,                                       !- Cooling Minimum Air Flow Fraction
  DesignDay,                              !- Heating Design Air Flow Method
  ,                                       !- Heating Design Air Flow Rate {m3/s}
  ,                                       !- Heating Maximum Air Flow per Zone Floor Area {m3/s-m2}
  ,                                       !- Heating Maximum Air Flow {m3/s}
  ,                                       !- Heating Maximum Air Flow Fraction
  ,                                       !- Design Zone Air Distribution Effectiveness in Cooling Mode
  ,                                       !- Design Zone Air Distribution Effectiveness in Heating Mode
  No,                                     !- Account for Dedicated Outdoor Air System
  NeutralSupplyAir,                       !- Dedicated Outdoor Air System Control Strategy
  autosize,                               !- Dedicated Outdoor Air Low Setpoint Temperature for Design {C}
  autosize;                               !- Dedicated Outdoor Air High Setpoint Temperature for Design {C}

OS:ZoneHVAC:EquipmentList,
  {e8cc3f36-2d5a-47a7-b5c0-b1d7c092a381}, !- Handle
  Zone HVAC Equipment List 2,             !- Name
  {d5cd3fac-c30e-4eb9-b5f0-dfbaf2449ac2}; !- Thermal Zone

OS:Space,
  {393de8e1-8665-47ba-b596-d374c13dd88e}, !- Handle
  garage space,                           !- Name
  {81649c46-2028-4ded-8fa5-d827e329b1e5}, !- Space Type Name
  ,                                       !- Default Construction Set Name
  ,                                       !- Default Schedule Set Name
  -0,                                     !- Direction of Relative North {deg}
  0,                                      !- X Origin {m}
  0,                                      !- Y Origin {m}
  0,                                      !- Z Origin {m}
  ,                                       !- Building Story Name
  {d5cd3fac-c30e-4eb9-b5f0-dfbaf2449ac2}; !- Thermal Zone Name

OS:Surface,
  {0c1416ad-cf32-48bd-946d-7a472299b67e}, !- Handle
  Surface 1,                              !- Name
  Floor,                                  !- Surface Type
  ,                                       !- Construction Name
  {393de8e1-8665-47ba-b596-d374c13dd88e}, !- Space Name
  Foundation,                             !- Outside Boundary Condition
  ,                                       !- Outside Boundary Condition Object
  NoSun,                                  !- Sun Exposure
  NoWind,                                 !- Wind Exposure
  ,                                       !- View Factor to Ground
  ,                                       !- Number of Vertices
  7.53507039083872, -3.048, 0,            !- X,Y,Z Vertex 1 {m}
  7.53507039083872, 3.048, 0,             !- X,Y,Z Vertex 2 {m}
  13.6310703908387, 3.048, 0,             !- X,Y,Z Vertex 3 {m}
  13.6310703908387, -3.048, 0;            !- X,Y,Z Vertex 4 {m}

OS:Surface,
  {5168e37d-d046-41b8-a245-fcfd08be6930}, !- Handle
  Surface 2,                              !- Name
  Wall,                                   !- Surface Type
  ,                                       !- Construction Name
  {393de8e1-8665-47ba-b596-d374c13dd88e}, !- Space Name
  Surface,                                !- Outside Boundary Condition
  {8cf9057d-d344-4ab4-b479-51199f804bb4}, !- Outside Boundary Condition Object
  NoSun,                                  !- Sun Exposure
  NoWind,                                 !- Wind Exposure
  ,                                       !- View Factor to Ground
  ,                                       !- Number of Vertices
  7.53507039083872, 3.048, 2.4384,        !- X,Y,Z Vertex 1 {m}
  7.53507039083872, 3.048, 0,             !- X,Y,Z Vertex 2 {m}
  7.53507039083872, 0, 0,                 !- X,Y,Z Vertex 3 {m}
  7.53507039083872, 0, 2.4384;            !- X,Y,Z Vertex 4 {m}

OS:Surface,
  {1b1c3014-ead2-44cc-958c-079a46716909}, !- Handle
  Surface 3,                              !- Name
  Wall,                                   !- Surface Type
  ,                                       !- Construction Name
  {393de8e1-8665-47ba-b596-d374c13dd88e}, !- Space Name
  Surface,                                !- Outside Boundary Condition
  {f8cc7cf8-05ac-4b5e-86ab-7f2c5a123c31}, !- Outside Boundary Condition Object
  NoSun,                                  !- Sun Exposure
  NoWind,                                 !- Wind Exposure
  ,                                       !- View Factor to Ground
  ,                                       !- Number of Vertices
  13.6310703908387, 3.048, 2.4384,        !- X,Y,Z Vertex 1 {m}
  13.6310703908387, 3.048, 0,             !- X,Y,Z Vertex 2 {m}
  7.53507039083872, 3.048, 0,             !- X,Y,Z Vertex 3 {m}
  7.53507039083872, 3.048, 2.4384;        !- X,Y,Z Vertex 4 {m}

OS:Surface,
  {5a871bc5-0bed-4984-bce1-33afdcae2cc7}, !- Handle
  Surface 4,                              !- Name
  Wall,                                   !- Surface Type
  ,                                       !- Construction Name
  {393de8e1-8665-47ba-b596-d374c13dd88e}, !- Space Name
  Outdoors,                               !- Outside Boundary Condition
  ,                                       !- Outside Boundary Condition Object
  SunExposed,                             !- Sun Exposure
  WindExposed,                            !- Wind Exposure
  ,                                       !- View Factor to Ground
  ,                                       !- Number of Vertices
  13.6310703908387, -3.048, 2.4384,       !- X,Y,Z Vertex 1 {m}
  13.6310703908387, -3.048, 0,            !- X,Y,Z Vertex 2 {m}
  13.6310703908387, 3.048, 0,             !- X,Y,Z Vertex 3 {m}
  13.6310703908387, 3.048, 2.4384;        !- X,Y,Z Vertex 4 {m}

OS:Surface,
  {c6c2782a-8b4b-415b-b600-1caec0204af5}, !- Handle
  Surface 5,                              !- Name
  Wall,                                   !- Surface Type
  ,                                       !- Construction Name
  {393de8e1-8665-47ba-b596-d374c13dd88e}, !- Space Name
  Outdoors,                               !- Outside Boundary Condition
  ,                                       !- Outside Boundary Condition Object
  SunExposed,                             !- Sun Exposure
  WindExposed,                            !- Wind Exposure
  ,                                       !- View Factor to Ground
  ,                                       !- Number of Vertices
  7.53507039083872, -3.048, 2.4384,       !- X,Y,Z Vertex 1 {m}
  7.53507039083872, -3.048, 0,            !- X,Y,Z Vertex 2 {m}
  13.6310703908387, -3.048, 0,            !- X,Y,Z Vertex 3 {m}
  13.6310703908387, -3.048, 2.4384;       !- X,Y,Z Vertex 4 {m}

OS:Surface,
  {cf18350d-0dd6-44a8-8a52-44d37597dd7c}, !- Handle
  Surface 6,                              !- Name
  RoofCeiling,                            !- Surface Type
  ,                                       !- Construction Name
  {393de8e1-8665-47ba-b596-d374c13dd88e}, !- Space Name
  Surface,                                !- Outside Boundary Condition
  {1243c9ca-8231-408d-af84-ccfe82fbaf2a}, !- Outside Boundary Condition Object
  NoSun,                                  !- Sun Exposure
  NoWind,                                 !- Wind Exposure
  ,                                       !- View Factor to Ground
  ,                                       !- Number of Vertices
  13.6310703908387, -3.048, 2.4384,       !- X,Y,Z Vertex 1 {m}
  13.6310703908387, 3.048, 2.4384,        !- X,Y,Z Vertex 2 {m}
  7.53507039083872, 3.048, 2.4384,        !- X,Y,Z Vertex 3 {m}
  7.53507039083872, -3.048, 2.4384;       !- X,Y,Z Vertex 4 {m}

OS:SpaceType,
  {81649c46-2028-4ded-8fa5-d827e329b1e5}, !- Handle
  Space Type 1,                           !- Name
  ,                                       !- Default Construction Set Name
  ,                                       !- Default Schedule Set Name
  ,                                       !- Group Rendering Name
  ,                                       !- Design Specification Outdoor Air Object Name
  ,                                       !- Standards Template
  ,                                       !- Standards Building Type
  garage;                                 !- Standards Space Type

OS:Space,
  {481d8dfc-9dcb-4e83-861a-3138c6dbf0e7}, !- Handle
  living space,                           !- Name
  {c33649cf-3bc1-4b35-ae5a-1941cb008cec}, !- Space Type Name
  ,                                       !- Default Construction Set Name
  ,                                       !- Default Schedule Set Name
  -0,                                     !- Direction of Relative North {deg}
  0,                                      !- X Origin {m}
  0,                                      !- Y Origin {m}
  0,                                      !- Z Origin {m}
  ,                                       !- Building Story Name
  {5c361135-6585-4407-9256-94788ad21f05}, !- Thermal Zone Name
  ,                                       !- Part of Total Floor Area
  ,                                       !- Design Specification Outdoor Air Object Name
  {6e0ea82d-5426-47b5-aec6-1fc1a7abce59}; !- Building Unit Name

OS:Surface,
  {2afa222f-d71a-482a-80c4-c0772c1a9a6a}, !- Handle
  Surface 7,                              !- Name
  Floor,                                  !- Surface Type
  ,                                       !- Construction Name
  {481d8dfc-9dcb-4e83-861a-3138c6dbf0e7}, !- Space Name
  Foundation,                             !- Outside Boundary Condition
  ,                                       !- Outside Boundary Condition Object
  NoSun,                                  !- Sun Exposure
  NoWind,                                 !- Wind Exposure
  ,                                       !- View Factor to Ground
  ,                                       !- Number of Vertices
  0, 0, 0,                                !- X,Y,Z Vertex 1 {m}
  0, 6.81553519541936, 0,                 !- X,Y,Z Vertex 2 {m}
  13.6310703908387, 6.81553519541936, 0,  !- X,Y,Z Vertex 3 {m}
  13.6310703908387, 3.048, 0,             !- X,Y,Z Vertex 4 {m}
  7.53507039083872, 3.048, 0,             !- X,Y,Z Vertex 5 {m}
  7.53507039083872, 0, 0;                 !- X,Y,Z Vertex 6 {m}

OS:Surface,
  {39905219-40eb-40c9-9cd1-cd6aa1dd56ba}, !- Handle
  Surface 8,                              !- Name
  Wall,                                   !- Surface Type
  ,                                       !- Construction Name
  {481d8dfc-9dcb-4e83-861a-3138c6dbf0e7}, !- Space Name
  Outdoors,                               !- Outside Boundary Condition
  ,                                       !- Outside Boundary Condition Object
  SunExposed,                             !- Sun Exposure
  WindExposed,                            !- Wind Exposure
  ,                                       !- View Factor to Ground
  ,                                       !- Number of Vertices
  0, 6.81553519541936, 2.4384,            !- X,Y,Z Vertex 1 {m}
  0, 6.81553519541936, 0,                 !- X,Y,Z Vertex 2 {m}
  0, 0, 0,                                !- X,Y,Z Vertex 3 {m}
  0, 0, 2.4384;                           !- X,Y,Z Vertex 4 {m}

OS:Surface,
  {de43a664-d131-4519-81d6-af6c37f3be21}, !- Handle
  Surface 9,                              !- Name
  Wall,                                   !- Surface Type
  ,                                       !- Construction Name
  {481d8dfc-9dcb-4e83-861a-3138c6dbf0e7}, !- Space Name
  Outdoors,                               !- Outside Boundary Condition
  ,                                       !- Outside Boundary Condition Object
  SunExposed,                             !- Sun Exposure
  WindExposed,                            !- Wind Exposure
  ,                                       !- View Factor to Ground
  ,                                       !- Number of Vertices
  13.6310703908387, 6.81553519541936, 2.4384, !- X,Y,Z Vertex 1 {m}
  13.6310703908387, 6.81553519541936, 0,  !- X,Y,Z Vertex 2 {m}
  0, 6.81553519541936, 0,                 !- X,Y,Z Vertex 3 {m}
  0, 6.81553519541936, 2.4384;            !- X,Y,Z Vertex 4 {m}

OS:Surface,
  {6e1dc136-0172-419c-8519-f43cdfde9db2}, !- Handle
  Surface 10,                             !- Name
  Wall,                                   !- Surface Type
  ,                                       !- Construction Name
  {481d8dfc-9dcb-4e83-861a-3138c6dbf0e7}, !- Space Name
  Outdoors,                               !- Outside Boundary Condition
  ,                                       !- Outside Boundary Condition Object
  SunExposed,                             !- Sun Exposure
  WindExposed,                            !- Wind Exposure
  ,                                       !- View Factor to Ground
  ,                                       !- Number of Vertices
  13.6310703908387, 3.048, 2.4384,        !- X,Y,Z Vertex 1 {m}
  13.6310703908387, 3.048, 0,             !- X,Y,Z Vertex 2 {m}
  13.6310703908387, 6.81553519541936, 0,  !- X,Y,Z Vertex 3 {m}
  13.6310703908387, 6.81553519541936, 2.4384; !- X,Y,Z Vertex 4 {m}

OS:Surface,
  {f8cc7cf8-05ac-4b5e-86ab-7f2c5a123c31}, !- Handle
  Surface 11,                             !- Name
  Wall,                                   !- Surface Type
  ,                                       !- Construction Name
  {481d8dfc-9dcb-4e83-861a-3138c6dbf0e7}, !- Space Name
  Surface,                                !- Outside Boundary Condition
  {1b1c3014-ead2-44cc-958c-079a46716909}, !- Outside Boundary Condition Object
  NoSun,                                  !- Sun Exposure
  NoWind,                                 !- Wind Exposure
  ,                                       !- View Factor to Ground
  ,                                       !- Number of Vertices
  7.53507039083872, 3.048, 2.4384,        !- X,Y,Z Vertex 1 {m}
  7.53507039083872, 3.048, 0,             !- X,Y,Z Vertex 2 {m}
  13.6310703908387, 3.048, 0,             !- X,Y,Z Vertex 3 {m}
  13.6310703908387, 3.048, 2.4384;        !- X,Y,Z Vertex 4 {m}

OS:Surface,
  {8cf9057d-d344-4ab4-b479-51199f804bb4}, !- Handle
  Surface 12,                             !- Name
  Wall,                                   !- Surface Type
  ,                                       !- Construction Name
  {481d8dfc-9dcb-4e83-861a-3138c6dbf0e7}, !- Space Name
  Surface,                                !- Outside Boundary Condition
  {5168e37d-d046-41b8-a245-fcfd08be6930}, !- Outside Boundary Condition Object
  NoSun,                                  !- Sun Exposure
  NoWind,                                 !- Wind Exposure
  ,                                       !- View Factor to Ground
  ,                                       !- Number of Vertices
  7.53507039083872, 0, 2.4384,            !- X,Y,Z Vertex 1 {m}
  7.53507039083872, 0, 0,                 !- X,Y,Z Vertex 2 {m}
  7.53507039083872, 3.048, 0,             !- X,Y,Z Vertex 3 {m}
  7.53507039083872, 3.048, 2.4384;        !- X,Y,Z Vertex 4 {m}

OS:Surface,
  {4a870616-16ff-4538-ba78-22cab10551e9}, !- Handle
  Surface 13,                             !- Name
  Wall,                                   !- Surface Type
  ,                                       !- Construction Name
  {481d8dfc-9dcb-4e83-861a-3138c6dbf0e7}, !- Space Name
  Outdoors,                               !- Outside Boundary Condition
  ,                                       !- Outside Boundary Condition Object
  SunExposed,                             !- Sun Exposure
  WindExposed,                            !- Wind Exposure
  ,                                       !- View Factor to Ground
  ,                                       !- Number of Vertices
  0, 0, 2.4384,                           !- X,Y,Z Vertex 1 {m}
  0, 0, 0,                                !- X,Y,Z Vertex 2 {m}
  7.53507039083872, 0, 0,                 !- X,Y,Z Vertex 3 {m}
  7.53507039083872, 0, 2.4384;            !- X,Y,Z Vertex 4 {m}

OS:Surface,
  {2ba6e4b7-4b19-4241-a2b0-0f748ee0e069}, !- Handle
  Surface 14,                             !- Name
  RoofCeiling,                            !- Surface Type
  ,                                       !- Construction Name
  {481d8dfc-9dcb-4e83-861a-3138c6dbf0e7}, !- Space Name
  Surface,                                !- Outside Boundary Condition
  {cd702c20-4922-407d-aa68-825468d3aadf}, !- Outside Boundary Condition Object
  NoSun,                                  !- Sun Exposure
  NoWind,                                 !- Wind Exposure
  ,                                       !- View Factor to Ground
  ,                                       !- Number of Vertices
  7.53507039083872, 0, 2.4384,            !- X,Y,Z Vertex 1 {m}
  7.53507039083872, 3.048, 2.4384,        !- X,Y,Z Vertex 2 {m}
  13.6310703908387, 3.048, 2.4384,        !- X,Y,Z Vertex 3 {m}
  13.6310703908387, 6.81553519541936, 2.4384, !- X,Y,Z Vertex 4 {m}
  0, 6.81553519541936, 2.4384,            !- X,Y,Z Vertex 5 {m}
  0, 0, 2.4384;                           !- X,Y,Z Vertex 6 {m}

OS:SpaceType,
  {c33649cf-3bc1-4b35-ae5a-1941cb008cec}, !- Handle
  Space Type 2,                           !- Name
  ,                                       !- Default Construction Set Name
  ,                                       !- Default Schedule Set Name
  ,                                       !- Group Rendering Name
  ,                                       !- Design Specification Outdoor Air Object Name
  ,                                       !- Standards Template
  ,                                       !- Standards Building Type
  living;                                 !- Standards Space Type

OS:Space,
  {bd413b69-5c75-4a1b-89a0-ef2c33fd07e2}, !- Handle
  living space|story 2,                   !- Name
  {c33649cf-3bc1-4b35-ae5a-1941cb008cec}, !- Space Type Name
  ,                                       !- Default Construction Set Name