!- NOTE: Auto-generated from /test/osw_files/SFD_HVACSizing_Equip_EF_AC2_Autosize.osw

OS:Version,
  {0bf46d35-889b-4916-9e79-2f87f3c2371a}, !- Handle
  2.8.0;                                  !- Version Identifier

OS:Building,
  {c528f8dd-16a7-4cad-adec-f79921dc57eb}, !- Handle
  Building 1,                             !- Name
  ,                                       !- Building Sector Type
  22.5,                                   !- North Axis {deg}
  ,                                       !- Nominal Floor to Floor Height {m}
  ,                                       !- Space Type Name
  ,                                       !- Default Construction Set Name
  ,                                       !- Default Schedule Set Name
  4,                                      !- Standards Number of Stories
  3,                                      !- Standards Number of Above Ground Stories
  ,                                       !- Standards Template
  singlefamilydetached,                   !- Standards Building Type
  1;                                      !- Standards Number of Living Units

OS:Facility,
  {7a7c7131-ff14-44cb-bdd8-5f73d648bb19}; !- Handle

OS:Site,
  {7f5b2d2b-aa4c-435e-b443-a5ba5426f36a}, !- Handle
  Denver Intl Ap_CO_USA,                  !- Name
  39.83,                                  !- Latitude {deg}
  -104.65,                                !- Longitude {deg}
  -7,                                     !- Time Zone {hr}
  1650,                                   !- Elevation {m}
  Suburbs;                                !- Terrain

OS:SimulationControl,
  {06a30f91-dc1a-4248-bbab-feef59d8ee82}, !- Handle
  ,                                       !- Do Zone Sizing Calculation
  ,                                       !- Do System Sizing Calculation
  ,                                       !- Do Plant Sizing Calculation
  No;                                     !- Run Simulation for Sizing Periods

OS:Sizing:Parameters,
  {a01dca1c-d732-49f6-b6e6-4a6fbaa8a74b}, !- Handle
  1.25,                                   !- Heating Sizing Factor
  1.15;                                   !- Cooling Sizing Factor

OS:Timestep,
  {3246c750-cd19-403d-8c1b-afb8a2abc0e1}, !- Handle
  6;                                      !- Number of Timesteps per Hour

OS:ShadowCalculation,
  {e5ffb4d4-2616-49bd-a644-44f1d3a980d9}, !- Handle
  20,                                     !- Calculation Frequency
  200;                                    !- Maximum Figures in Shadow Overlap Calculations

OS:HeatBalanceAlgorithm,
  {2ad28655-24e1-4f2d-9d20-41cb4321cb9e}, !- Handle
  ConductionTransferFunction,             !- Algorithm
  200;                                    !- Surface Temperature Upper Limit {C}

OS:RunPeriod,
  {63ceb1b7-8319-4149-9e1c-f617a8d44b34}, !- Handle
  Run Period 1,                           !- Name
  1,                                      !- Begin Month
  1,                                      !- Begin Day of Month
  12,                                     !- End Month
  31,                                     !- End Day of Month
  ,                                       !- Use Weather File Holidays and Special Days
  ,                                       !- Use Weather File Daylight Saving Period
  ,                                       !- Apply Weekend Holiday Rule
  ,                                       !- Use Weather File Rain Indicators
  ,                                       !- Use Weather File Snow Indicators
  ;                                       !- Number of Times Runperiod to be Repeated

OS:LifeCycleCost:Parameters,
  {31b3baf3-d1f7-4ed6-be86-8a4f23c9cf19}, !- Handle
  ,                                       !- Analysis Type
  ,                                       !- Discounting Convention
  ,                                       !- Inflation Approach
  ,                                       !- Real Discount Rate
  ,                                       !- Nominal Discount Rate
  ,                                       !- Inflation
  ,                                       !- Base Date Month
  ,                                       !- Base Date Year
  ,                                       !- Service Date Month
  ,                                       !- Service Date Year
  ;                                       !- Length of Study Period in Years

OS:SurfaceConvectionAlgorithm:Outside,
  {91017451-ea77-4d53-aa32-89ccf014bb68}, !- Handle
  DOE-2;                                  !- Algorithm

OS:SurfaceConvectionAlgorithm:Inside,
  {52718637-60d8-4ec8-aa72-4129dfdd8ee0}, !- Handle
  TARP;                                   !- Algorithm

OS:ZoneCapacitanceMultiplier:ResearchSpecial,
  {15e77039-91c2-43b3-85de-61276a9feb63}, !- Handle
  ,                                       !- Temperature Capacity Multiplier
  15,                                     !- Humidity Capacity Multiplier
  ;                                       !- Carbon Dioxide Capacity Multiplier

OS:WeatherFile,
  {7924d959-5333-4d91-be6e-9e515ca779cf}, !- Handle
  Denver Intl Ap,                         !- City
  CO,                                     !- State Province Region
  USA,                                    !- Country
  TMY3,                                   !- Data Source
  725650,                                 !- WMO Number
  39.83,                                  !- Latitude {deg}
  -104.65,                                !- Longitude {deg}
  -7,                                     !- Time Zone {hr}
  1650,                                   !- Elevation {m}
  file:../weather/USA_CO_Denver.Intl.AP.725650_TMY3.epw, !- Url
  E23378AA;                               !- Checksum

OS:AdditionalProperties,
  {6b842bf1-65bb-4027-88d5-6a928a66f255}, !- Handle
  {7924d959-5333-4d91-be6e-9e515ca779cf}, !- Object Name
  EPWHeaderCity,                          !- Feature Name 1
  String,                                 !- Feature Data Type 1
  Denver Intl Ap,                         !- Feature Value 1
  EPWHeaderState,                         !- Feature Name 2
  String,                                 !- Feature Data Type 2
  CO,                                     !- Feature Value 2
  EPWHeaderCountry,                       !- Feature Name 3
  String,                                 !- Feature Data Type 3
  USA,                                    !- Feature Value 3
  EPWHeaderDataSource,                    !- Feature Name 4
  String,                                 !- Feature Data Type 4
  TMY3,                                   !- Feature Value 4
  EPWHeaderStation,                       !- Feature Name 5
  String,                                 !- Feature Data Type 5
  725650,                                 !- Feature Value 5
  EPWHeaderLatitude,                      !- Feature Name 6
  Double,                                 !- Feature Data Type 6
  39.829999999999998,                     !- Feature Value 6
  EPWHeaderLongitude,                     !- Feature Name 7
  Double,                                 !- Feature Data Type 7
  -104.65000000000001,                    !- Feature Value 7
  EPWHeaderTimezone,                      !- Feature Name 8
  Double,                                 !- Feature Data Type 8
  -7,                                     !- Feature Value 8
  EPWHeaderAltitude,                      !- Feature Name 9
  Double,                                 !- Feature Data Type 9
  5413.3858267716532,                     !- Feature Value 9
  EPWHeaderLocalPressure,                 !- Feature Name 10
  Double,                                 !- Feature Data Type 10
  0.81937567683596546,                    !- Feature Value 10
  EPWHeaderRecordsPerHour,                !- Feature Name 11
  Double,                                 !- Feature Data Type 11
  0,                                      !- Feature Value 11
  EPWDataAnnualAvgDrybulb,                !- Feature Name 12
  Double,                                 !- Feature Data Type 12
  51.575616438356228,                     !- Feature Value 12
  EPWDataAnnualMinDrybulb,                !- Feature Name 13
  Double,                                 !- Feature Data Type 13
  -2.9200000000000017,                    !- Feature Value 13
  EPWDataAnnualMaxDrybulb,                !- Feature Name 14
  Double,                                 !- Feature Data Type 14
  104,                                    !- Feature Value 14
  EPWDataCDD50F,                          !- Feature Name 15
  Double,                                 !- Feature Data Type 15
  3072.2925000000005,                     !- Feature Value 15
  EPWDataCDD65F,                          !- Feature Name 16
  Double,                                 !- Feature Data Type 16
  883.62000000000035,                     !- Feature Value 16
  EPWDataHDD50F,                          !- Feature Name 17
  Double,                                 !- Feature Data Type 17
  2497.1925000000001,                     !- Feature Value 17
  EPWDataHDD65F,                          !- Feature Name 18
  Double,                                 !- Feature Data Type 18
  5783.5200000000013,                     !- Feature Value 18
  EPWDataAnnualAvgWindspeed,              !- Feature Name 19
  Double,                                 !- Feature Data Type 19
  3.9165296803649667,                     !- Feature Value 19
  EPWDataMonthlyAvgDrybulbs,              !- Feature Name 20
  String,                                 !- Feature Data Type 20
  33.4191935483871&#4431.90142857142857&#4443.02620967741937&#4442.48624999999999&#4459.877741935483854&#4473.57574999999997&#4472.07975806451608&#4472.70008064516134&#4466.49200000000006&#4450.079112903225806&#4437.218250000000005&#4434.582177419354835, !- Feature Value 20
  EPWDataGroundMonthlyTemps,              !- Feature Name 21
  String,                                 !- Feature Data Type 21
  44.08306285945173&#4440.89570904991865&#4440.64045432632048&#4442.153016571250646&#4448.225111118704206&#4454.268919273837525&#4459.508577937551024&#4462.82777283423508&#4463.10975667174995&#4460.41014950381947&#4455.304105212311526&#4449.445696474514364, !- Feature Value 21
  EPWDataWSF,                             !- Feature Name 22
  Double,                                 !- Feature Data Type 22
  0.58999999999999997,                    !- Feature Value 22
  EPWDataMonthlyAvgDailyHighDrybulbs,     !- Feature Name 23
  String,                                 !- Feature Data Type 23
  47.41032258064516&#4446.58642857142857&#4455.15032258064517&#4453.708&#4472.80193548387098&#4488.67600000000002&#4486.1858064516129&#4485.87225806451613&#4482.082&#4463.18064516129033&#4448.73400000000001&#4448.87935483870968, !- Feature Value 23
  EPWDataMonthlyAvgDailyLowDrybulbs,      !- Feature Name 24
  String,                                 !- Feature Data Type 24
  19.347741935483874&#4419.856428571428573&#4430.316129032258065&#4431.112&#4447.41612903225806&#4457.901999999999994&#4459.063870967741934&#4460.956774193548384&#4452.352000000000004&#4438.41612903225806&#4427.002000000000002&#4423.02903225806451, !- Feature Value 24
  EPWDesignHeatingDrybulb,                !- Feature Name 25
  Double,                                 !- Feature Data Type 25
  12.02,                                  !- Feature Value 25
  EPWDesignHeatingWindspeed,              !- Feature Name 26
  Double,                                 !- Feature Data Type 26
  2.8062500000000004,                     !- Feature Value 26
  EPWDesignCoolingDrybulb,                !- Feature Name 27
  Double,                                 !- Feature Data Type 27
  91.939999999999998,                     !- Feature Value 27
  EPWDesignCoolingWetbulb,                !- Feature Name 28
  Double,                                 !- Feature Data Type 28
  59.95131430195849,                      !- Feature Value 28
  EPWDesignCoolingHumidityRatio,          !- Feature Name 29
  Double,                                 !- Feature Data Type 29
  0.0059161086834698092,                  !- Feature Value 29
  EPWDesignCoolingWindspeed,              !- Feature Name 30
  Double,                                 !- Feature Data Type 30
  3.7999999999999989,                     !- Feature Value 30
  EPWDesignDailyTemperatureRange,         !- Feature Name 31
  Double,                                 !- Feature Data Type 31
  24.915483870967748,                     !- Feature Value 31
  EPWDesignDehumidDrybulb,                !- Feature Name 32
  Double,                                 !- Feature Data Type 32
  67.996785714285721,                     !- Feature Value 32
  EPWDesignDehumidHumidityRatio,          !- Feature Name 33
  Double,                                 !- Feature Data Type 33
  0.012133744170488724,                   !- Feature Value 33
  EPWDesignCoolingDirectNormal,           !- Feature Name 34
  Double,                                 !- Feature Data Type 34
  985,                                    !- Feature Value 34
  EPWDesignCoolingDiffuseHorizontal,      !- Feature Name 35
  Double,                                 !- Feature Data Type 35
  84;                                     !- Feature Value 35

OS:YearDescription,
  {d84d0d64-c295-4d7a-b30e-894cc3867746}, !- Handle
  ,                                       !- Calendar Year
  Monday;                                 !- Day of Week for Start Day

OS:ClimateZones,
  {76498dfb-de29-4752-9565-2e2c6e0c4985}, !- Handle
  ,                                       !- Active Institution
  ,                                       !- Active Year
  ,                                       !- Climate Zone Institution Name 1
  ,                                       !- Climate Zone Document Name 1
  ,                                       !- Climate Zone Document Year 1
  ,                                       !- Climate Zone Value 1
  Building America,                       !- Climate Zone Institution Name 2
  ,                                       !- Climate Zone Document Name 2
  0,                                      !- Climate Zone Document Year 2
  Cold;                                   !- Climate Zone Value 2

OS:Site:WaterMainsTemperature,
  {5072da9a-5caa-437e-9fa7-5d79c0bc6d5b}, !- Handle
  Correlation,                            !- Calculation Method
  ,                                       !- Temperature Schedule Name
  10.8753424657535,                       !- Annual Average Outdoor Air Temperature {C}
  23.1524007936508;                       !- Maximum Difference In Monthly Average Outdoor Air Temperatures {deltaC}

OS:RunPeriodControl:DaylightSavingTime,
  {d6120372-091c-4f32-9236-8e7659855b87}, !- Handle
  4/7,                                    !- Start Date
  10/26;                                  !- End Date

OS:Site:GroundTemperature:Deep,
  {8e3ead14-1d19-469a-8148-937bffe47980}, !- Handle
  10.8753424657535,                       !- January Deep Ground Temperature {C}
  10.8753424657535,                       !- February Deep Ground Temperature {C}
  10.8753424657535,                       !- March Deep Ground Temperature {C}
  10.8753424657535,                       !- April Deep Ground Temperature {C}
  10.8753424657535,                       !- May Deep Ground Temperature {C}
  10.8753424657535,                       !- June Deep Ground Temperature {C}
  10.8753424657535,                       !- July Deep Ground Temperature {C}
  10.8753424657535,                       !- August Deep Ground Temperature {C}
  10.8753424657535,                       !- September Deep Ground Temperature {C}
  10.8753424657535,                       !- October Deep Ground Temperature {C}
  10.8753424657535,                       !- November Deep Ground Temperature {C}
  10.8753424657535;                       !- December Deep Ground Temperature {C}

OS:ThermalZone,
  {118fdd8b-8518-4fef-9bbd-3d50f80d4626}, !- Handle
  living zone,                            !- Name
  ,                                       !- Multiplier
  ,                                       !- Ceiling Height {m}
  ,                                       !- Volume {m3}
  ,                                       !- Floor Area {m2}
  ,                                       !- Zone Inside Convection Algorithm
  ,                                       !- Zone Outside Convection Algorithm
  ,                                       !- Zone Conditioning Equipment List Name
  {c3e15780-1b45-4279-b862-2cc770440261}, !- Zone Air Inlet Port List
  {8b1f1ffc-aefc-4d48-8a08-380a6b28a6fe}, !- Zone Air Exhaust Port List
  {5384608a-4323-404a-b849-bd4020b12c70}, !- Zone Air Node Name
  {fe269e67-4fb1-428d-aa75-1077c7386dbd}, !- Zone Return Air Port List
  ,                                       !- Primary Daylighting Control Name
  ,                                       !- Fraction of Zone Controlled by Primary Daylighting Control
  ,                                       !- Secondary Daylighting Control Name
  ,                                       !- Fraction of Zone Controlled by Secondary Daylighting Control
  ,                                       !- Illuminance Map Name
  ,                                       !- Group Rendering Name
  {e8187511-6fd8-4a58-b966-c6fddb4fdf60}, !- Thermostat Name
  No;                                     !- Use Ideal Air Loads

OS:Node,
  {67984877-a6c1-4a1e-a262-078b0c699d37}, !- Handle
  Node 1,                                 !- Name
  {5384608a-4323-404a-b849-bd4020b12c70}, !- Inlet Port
  ;                                       !- Outlet Port

OS:Connection,
  {5384608a-4323-404a-b849-bd4020b12c70}, !- Handle
  {bccd41ff-6658-45ee-9000-44ae7251ad3d}, !- Name
  {118fdd8b-8518-4fef-9bbd-3d50f80d4626}, !- Source Object
  11,                                     !- Outlet Port
  {67984877-a6c1-4a1e-a262-078b0c699d37}, !- Target Object
  2;                                      !- Inlet Port

OS:PortList,
  {c3e15780-1b45-4279-b862-2cc770440261}, !- Handle
  {1e9e40c1-79c7-4803-ba68-3000d06e1bba}, !- Name
  {118fdd8b-8518-4fef-9bbd-3d50f80d4626}, !- HVAC Component
  {3502d2f4-024a-43f3-b1e9-d98003857f2c}, !- Port 1
  {5b125c95-8908-4e24-a100-e824860c4c15}; !- Port 2

OS:PortList,
  {8b1f1ffc-aefc-4d48-8a08-380a6b28a6fe}, !- Handle
  {7e81e681-8913-48c6-86f6-435c7af268d0}, !- Name
  {118fdd8b-8518-4fef-9bbd-3d50f80d4626}; !- HVAC Component

OS:PortList,
  {fe269e67-4fb1-428d-aa75-1077c7386dbd}, !- Handle
  {6d8d7fcf-2647-47e0-90c1-de93957cba55}, !- Name
  {118fdd8b-8518-4fef-9bbd-3d50f80d4626}, !- HVAC Component
  {a3881758-19c2-4e52-a3a5-9111ae5ba761}, !- Port 1
  {7b77d4be-385d-465a-bebe-60c66c429102}; !- Port 2

OS:Sizing:Zone,
  {e6dff6c5-2944-4d93-bc84-25954254f49d}, !- Handle
  {118fdd8b-8518-4fef-9bbd-3d50f80d4626}, !- Zone or ZoneList Name
  SupplyAirTemperature,                   !- Zone Cooling Design Supply Air Temperature Input Method
  14,                                     !- Zone Cooling Design Supply Air Temperature {C}
  11.11,                                  !- Zone Cooling Design Supply Air Temperature Difference {deltaC}
  SupplyAirTemperature,                   !- Zone Heating Design Supply Air Temperature Input Method
  40,                                     !- Zone Heating Design Supply Air Temperature {C}
  11.11,                                  !- Zone Heating Design Supply Air Temperature Difference {deltaC}
  0.0085,                                 !- Zone Cooling Design Supply Air Humidity Ratio {kg-H2O/kg-air}
  0.008,                                  !- Zone Heating Design Supply Air Humidity Ratio {kg-H2O/kg-air}
  ,                                       !- Zone Heating Sizing Factor
  ,                                       !- Zone Cooling Sizing Factor
  DesignDay,                              !- Cooling Design Air Flow Method
  ,                                       !- Cooling Design Air Flow Rate {m3/s}
  ,                                       !- Cooling Minimum Air Flow per Zone Floor Area {m3/s-m2}
  ,                                       !- Cooling Minimum Air Flow {m3/s}
  ,                                       !- Cooling Minimum Air Flow Fraction
  DesignDay,                              !- Heating Design Air Flow Method
  ,                                       !- Heating Design Air Flow Rate {m3/s}
  ,                                       !- Heating Maximum Air Flow per Zone Floor Area {m3/s-m2}
  ,                                       !- Heating Maximum Air Flow {m3/s}
  ,                                       !- Heating Maximum Air Flow Fraction
  ,                                       !- Design Zone Air Distribution Effectiveness in Cooling Mode
  ,                                       !- Design Zone Air Distribution Effectiveness in Heating Mode
  No,                                     !- Account for Dedicated Outdoor Air System
  NeutralSupplyAir,                       !- Dedicated Outdoor Air System Control Strategy
  autosize,                               !- Dedicated Outdoor Air Low Setpoint Temperature for Design {C}
  autosize;                               !- Dedicated Outdoor Air High Setpoint Temperature for Design {C}

OS:ZoneHVAC:EquipmentList,
  {399600c3-ce82-4241-b4dc-ff5331e793d3}, !- Handle
  Zone HVAC Equipment List 1,             !- Name
  {118fdd8b-8518-4fef-9bbd-3d50f80d4626}, !- Thermal Zone
  SequentialLoad,                         !- Load Distribution Scheme
  {a31b1ff6-6aeb-4517-8694-4203c5bb7c4a}, !- Zone Equipment 1
  1,                                      !- Zone Equipment Cooling Sequence 1
  1,                                      !- Zone Equipment Heating or No-Load Sequence 1
  ,                                       !- Zone Equipment Sequential Cooling Fraction 1
  ,                                       !- Zone Equipment Sequential Heating Fraction 1
  {e0434c3a-fd5f-4da1-9856-cf8cef0def7a}, !- Zone Equipment 2
  2,                                      !- Zone Equipment Cooling Sequence 2
  2,                                      !- Zone Equipment Heating or No-Load Sequence 2
  ,                                       !- Zone Equipment Sequential Cooling Fraction 2
  ;                                       !- Zone Equipment Sequential Heating Fraction 2

OS:ThermalZone,
  {71b50752-5552-47ca-97de-0b93569d049d}, !- Handle
  garage zone,                            !- Name
  ,                                       !- Multiplier
  ,                                       !- Ceiling Height {m}
  ,                                       !- Volume {m3}
  ,                                       !- Floor Area {m2}
  ,                                       !- Zone Inside Convection Algorithm
  ,                                       !- Zone Outside Convection Algorithm
  ,                                       !- Zone Conditioning Equipment List Name
  {c52c9a78-8cbf-40b9-8dcd-09d4d56be829}, !- Zone Air Inlet Port List
  {1f892714-fbe9-4773-a02a-7981350f19fa}, !- Zone Air Exhaust Port List
  {6e3e5976-cdd4-4768-8e75-27b75d3d1ff8}, !- Zone Air Node Name
  {93cd5de1-b794-47ff-9539-27182c3a48ed}, !- Zone Return Air Port List
  ,                                       !- Primary Daylighting Control Name
  ,                                       !- Fraction of Zone Controlled by Primary Daylighting Control
  ,                                       !- Secondary Daylighting Control Name
  ,                                       !- Fraction of Zone Controlled by Secondary Daylighting Control
  ,                                       !- Illuminance Map Name
  ,                                       !- Group Rendering Name
  ,                                       !- Thermostat Name
  No;                                     !- Use Ideal Air Loads

OS:Node,
  {6004e9cf-4242-4bd6-b95c-148010e01b6b}, !- Handle
  Node 2,                                 !- Name
  {6e3e5976-cdd4-4768-8e75-27b75d3d1ff8}, !- Inlet Port
  ;                                       !- Outlet Port

OS:Connection,
  {6e3e5976-cdd4-4768-8e75-27b75d3d1ff8}, !- Handle
  {4568ff50-cafe-4430-94f0-97f562887cbe}, !- Name
  {71b50752-5552-47ca-97de-0b93569d049d}, !- Source Object
  11,                                     !- Outlet Port
  {6004e9cf-4242-4bd6-b95c-148010e01b6b}, !- Target Object
  2;                                      !- Inlet Port

OS:PortList,
  {c52c9a78-8cbf-40b9-8dcd-09d4d56be829}, !- Handle
  {073b9a6c-d6fb-43a3-a12b-dd72edb20f22}, !- Name
  {71b50752-5552-47ca-97de-0b93569d049d}; !- HVAC Component

OS:PortList,
  {1f892714-fbe9-4773-a02a-7981350f19fa}, !- Handle
  {576c605e-706a-4b2a-bf8d-62f8673bb598}, !- Name
  {71b50752-5552-47ca-97de-0b93569d049d}; !- HVAC Component

OS:PortList,
  {93cd5de1-b794-47ff-9539-27182c3a48ed}, !- Handle
  {59a53f37-9a7f-4a0f-80ad-a05824551272}, !- Name
  {71b50752-5552-47ca-97de-0b93569d049d}; !- HVAC Component

OS:Sizing:Zone,
  {1078cb03-fbe6-4fce-ae84-9a6ddec2dcb5}, !- Handle
  {71b50752-5552-47ca-97de-0b93569d049d}, !- Zone or ZoneList Name
  SupplyAirTemperature,                   !- Zone Cooling Design Supply Air Temperature Input Method
  14,                                     !- Zone Cooling Design Supply Air Temperature {C}
  11.11,                                  !- Zone Cooling Design Supply Air Temperature Difference {deltaC}
  SupplyAirTemperature,                   !- Zone Heating Design Supply Air Temperature Input Method
  40,                                     !- Zone Heating Design Supply Air Temperature {C}
  11.11,                                  !- Zone Heating Design Supply Air Temperature Difference {deltaC}
  0.0085,                                 !- Zone Cooling Design Supply Air Humidity Ratio {kg-H2O/kg-air}
  0.008,                                  !- Zone Heating Design Supply Air Humidity Ratio {kg-H2O/kg-air}
  ,                                       !- Zone Heating Sizing Factor
  ,                                       !- Zone Cooling Sizing Factor
  DesignDay,                              !- Cooling Design Air Flow Method
  ,                                       !- Cooling Design Air Flow Rate {m3/s}
  ,                                       !- Cooling Minimum Air Flow per Zone Floor Area {m3/s-m2}
  ,                                       !- Cooling Minimum Air Flow {m3/s}
  ,                                       !- Cooling Minimum Air Flow Fraction
  DesignDay,                              !- Heating Design Air Flow Method
  ,                                       !- Heating Design Air Flow Rate {m3/s}
  ,                                       !- Heating Maximum Air Flow per Zone Floor Area {m3/s-m2}
  ,                                       !- Heating Maximum Air Flow {m3/s}
  ,                                       !- Heating Maximum Air Flow Fraction
  ,                                       !- Design Zone Air Distribution Effectiveness in Cooling Mode
  ,                                       !- Design Zone Air Distribution Effectiveness in Heating Mode
  No,                                     !- Account for Dedicated Outdoor Air System
  NeutralSupplyAir,                       !- Dedicated Outdoor Air System Control Strategy
  autosize,                               !- Dedicated Outdoor Air Low Setpoint Temperature for Design {C}
  autosize;                               !- Dedicated Outdoor Air High Setpoint Temperature for Design {C}

OS:ZoneHVAC:EquipmentList,
  {1e1dd9f9-ae8a-4a50-8b88-20edef958b2f}, !- Handle
  Zone HVAC Equipment List 2,             !- Name
  {71b50752-5552-47ca-97de-0b93569d049d}; !- Thermal Zone

OS:Space,
  {9a7494a6-d029-40cb-81d0-bacc8d4e79a5}, !- Handle
  garage space,                           !- Name
  {85670755-3c18-4bb3-aa20-0b277be710e0}, !- Space Type Name
  ,                                       !- Default Construction Set Name
  ,                                       !- Default Schedule Set Name
  -0,                                     !- Direction of Relative North {deg}
  0,                                      !- X Origin {m}
  0,                                      !- Y Origin {m}
  0,                                      !- Z Origin {m}
  ,                                       !- Building Story Name
  {71b50752-5552-47ca-97de-0b93569d049d}; !- Thermal Zone Name

OS:Surface,
  {a4984a88-909d-4a68-ad04-eb977b659c77}, !- Handle
  Surface 1,                              !- Name
  Floor,                                  !- Surface Type
  {c293a1db-5cce-4971-a9a1-379c14762406}, !- Construction Name
  {9a7494a6-d029-40cb-81d0-bacc8d4e79a5}, !- Space Name
  Foundation,                             !- Outside Boundary Condition
  {6541e169-a7c9-4bd8-a0ac-7c736be48278}, !- Outside Boundary Condition Object
  NoSun,                                  !- Sun Exposure
  NoWind,                                 !- Wind Exposure
  ,                                       !- View Factor to Ground
  ,                                       !- Number of Vertices
  7.6199999993904, -3.048, 0,             !- X,Y,Z Vertex 1 {m}
  7.6199999993904, 3.048, 0,              !- X,Y,Z Vertex 2 {m}
  11.2775999993904, 3.048, 0,             !- X,Y,Z Vertex 3 {m}
  11.2775999993904, -3.048, 0;            !- X,Y,Z Vertex 4 {m}

OS:Surface,
  {fd0c2b69-cd8c-40cb-9bfe-f116820501ff}, !- Handle
  Surface 2,                              !- Name
  Wall,                                   !- Surface Type
  {42a444d9-b61c-4537-a8d7-e77d0baaba50}, !- Construction Name
  {9a7494a6-d029-40cb-81d0-bacc8d4e79a5}, !- Space Name
  Surface,                                !- Outside Boundary Condition
  {2f13a239-1a09-4632-b159-a5bba4e45d4e}, !- Outside Boundary Condition Object
  NoSun,                                  !- Sun Exposure
  NoWind,                                 !- Wind Exposure
  ,                                       !- View Factor to Ground
  ,                                       !- Number of Vertices