!- NOTE: Auto-generated from /test/osw_files/SFD_2000sqft_2story_SL_UA_3Beds_2Baths_Denver_CentralAC_NoSetpoints.osw

OS:Version,
  {5788aeb6-45e6-444a-9c07-93917ff5f8fc}, !- Handle
  2.8.1;                                  !- Version Identifier

OS:SimulationControl,
  {cbe2dc1c-3f3d-44bf-abca-9a52a8de0cae}, !- Handle
  ,                                       !- Do Zone Sizing Calculation
  ,                                       !- Do System Sizing Calculation
  ,                                       !- Do Plant Sizing Calculation
  No;                                     !- Run Simulation for Sizing Periods

OS:Timestep,
  {1d427ea0-7d7d-4267-bae2-cab6509455c8}, !- Handle
  6;                                      !- Number of Timesteps per Hour

OS:ShadowCalculation,
  {a3184a91-4d92-4c89-9a90-a1d6162b3c26}, !- Handle
  20,                                     !- Calculation Frequency
  200;                                    !- Maximum Figures in Shadow Overlap Calculations

OS:SurfaceConvectionAlgorithm:Outside,
  {8c6a2a73-ce37-460c-8233-7278dfb844e8}, !- Handle
  DOE-2;                                  !- Algorithm

OS:SurfaceConvectionAlgorithm:Inside,
  {416eef55-b2e9-45af-8200-1fe030c09098}, !- Handle
  TARP;                                   !- Algorithm

OS:ZoneCapacitanceMultiplier:ResearchSpecial,
  {ff7645e1-b8a9-4737-8db7-1d03ac49771c}, !- Handle
  ,                                       !- Temperature Capacity Multiplier
  15,                                     !- Humidity Capacity Multiplier
  ;                                       !- Carbon Dioxide Capacity Multiplier

OS:RunPeriod,
  {f135008f-d54a-4566-9747-5e40c6184a50}, !- Handle
  Run Period 1,                           !- Name
  1,                                      !- Begin Month
  1,                                      !- Begin Day of Month
  12,                                     !- End Month
  31,                                     !- End Day of Month
  ,                                       !- Use Weather File Holidays and Special Days
  ,                                       !- Use Weather File Daylight Saving Period
  ,                                       !- Apply Weekend Holiday Rule
  ,                                       !- Use Weather File Rain Indicators
  ,                                       !- Use Weather File Snow Indicators
  ;                                       !- Number of Times Runperiod to be Repeated

OS:ThermalZone,
  {e53556cd-6a57-4800-aafa-61c2ad9f0656}, !- Handle
  living zone,                            !- Name
  ,                                       !- Multiplier
  ,                                       !- Ceiling Height {m}
  ,                                       !- Volume {m3}
  ,                                       !- Floor Area {m2}
  ,                                       !- Zone Inside Convection Algorithm
  ,                                       !- Zone Outside Convection Algorithm
  ,                                       !- Zone Conditioning Equipment List Name
  {9b32b357-7096-4f73-b3b8-be2511f54180}, !- Zone Air Inlet Port List
  {9cbdaae2-74a0-437b-b6f2-1fdc9cfec507}, !- Zone Air Exhaust Port List
  {47f24e1b-741f-4788-9e61-78e0a407d2db}, !- Zone Air Node Name
  {865f26cb-c129-4293-af05-f8b94494e429}, !- Zone Return Air Port List
  ,                                       !- Primary Daylighting Control Name
  ,                                       !- Fraction of Zone Controlled by Primary Daylighting Control
  ,                                       !- Secondary Daylighting Control Name
  ,                                       !- Fraction of Zone Controlled by Secondary Daylighting Control
  ,                                       !- Illuminance Map Name
  ,                                       !- Group Rendering Name
  ,                                       !- Thermostat Name
  No;                                     !- Use Ideal Air Loads

OS:Node,
  {25718699-acaf-4c26-9c94-ed1412ddde3e}, !- Handle
  Node 1,                                 !- Name
  {47f24e1b-741f-4788-9e61-78e0a407d2db}, !- Inlet Port
  ;                                       !- Outlet Port

OS:Connection,
  {47f24e1b-741f-4788-9e61-78e0a407d2db}, !- Handle
  {c623d8b5-b189-4383-a989-96470e8babf0}, !- Name
  {e53556cd-6a57-4800-aafa-61c2ad9f0656}, !- Source Object
  11,                                     !- Outlet Port
  {25718699-acaf-4c26-9c94-ed1412ddde3e}, !- Target Object
  2;                                      !- Inlet Port

OS:PortList,
  {9b32b357-7096-4f73-b3b8-be2511f54180}, !- Handle
  {93cb30d0-9aea-40d3-943d-373ae37d3269}, !- Name
  {e53556cd-6a57-4800-aafa-61c2ad9f0656}, !- HVAC Component
  {3fafedb0-8ae3-4f13-bb0f-89083831fc00}; !- Port 1

OS:PortList,
  {9cbdaae2-74a0-437b-b6f2-1fdc9cfec507}, !- Handle
  {185b9ab7-66e4-45c1-9a22-770ff4511a86}, !- Name
  {e53556cd-6a57-4800-aafa-61c2ad9f0656}; !- HVAC Component

OS:PortList,
  {865f26cb-c129-4293-af05-f8b94494e429}, !- Handle
  {04d9e8b7-ccd8-44d6-9460-65ab0146d89b}, !- Name
  {e53556cd-6a57-4800-aafa-61c2ad9f0656}, !- HVAC Component
  {6203ee1e-e55c-46f5-8064-0fd86c51b28a}; !- Port 1

OS:Sizing:Zone,
  {6010d8a2-0ea8-4d37-8784-1526dcc6b5d9}, !- Handle
  {e53556cd-6a57-4800-aafa-61c2ad9f0656}, !- Zone or ZoneList Name
  SupplyAirTemperature,                   !- Zone Cooling Design Supply Air Temperature Input Method
  14,                                     !- Zone Cooling Design Supply Air Temperature {C}
  11.11,                                  !- Zone Cooling Design Supply Air Temperature Difference {deltaC}
  SupplyAirTemperature,                   !- Zone Heating Design Supply Air Temperature Input Method
  40,                                     !- Zone Heating Design Supply Air Temperature {C}
  11.11,                                  !- Zone Heating Design Supply Air Temperature Difference {deltaC}
  0.0085,                                 !- Zone Cooling Design Supply Air Humidity Ratio {kg-H2O/kg-air}
  0.008,                                  !- Zone Heating Design Supply Air Humidity Ratio {kg-H2O/kg-air}
  ,                                       !- Zone Heating Sizing Factor
  ,                                       !- Zone Cooling Sizing Factor
  DesignDay,                              !- Cooling Design Air Flow Method
  ,                                       !- Cooling Design Air Flow Rate {m3/s}
  ,                                       !- Cooling Minimum Air Flow per Zone Floor Area {m3/s-m2}
  ,                                       !- Cooling Minimum Air Flow {m3/s}
  ,                                       !- Cooling Minimum Air Flow Fraction
  DesignDay,                              !- Heating Design Air Flow Method
  ,                                       !- Heating Design Air Flow Rate {m3/s}
  ,                                       !- Heating Maximum Air Flow per Zone Floor Area {m3/s-m2}
  ,                                       !- Heating Maximum Air Flow {m3/s}
  ,                                       !- Heating Maximum Air Flow Fraction
  ,                                       !- Design Zone Air Distribution Effectiveness in Cooling Mode
  ,                                       !- Design Zone Air Distribution Effectiveness in Heating Mode
  No,                                     !- Account for Dedicated Outdoor Air System
  NeutralSupplyAir,                       !- Dedicated Outdoor Air System Control Strategy
  autosize,                               !- Dedicated Outdoor Air Low Setpoint Temperature for Design {C}
  autosize;                               !- Dedicated Outdoor Air High Setpoint Temperature for Design {C}

OS:ZoneHVAC:EquipmentList,
  {8d25e9a5-f690-4cfd-90a4-e9bb56073885}, !- Handle
  Zone HVAC Equipment List 1,             !- Name
  {e53556cd-6a57-4800-aafa-61c2ad9f0656}, !- Thermal Zone
  SequentialLoad,                         !- Load Distribution Scheme
  {b3c02902-b981-478a-957d-5931a3781b2d}, !- Zone Equipment 1
  1,                                      !- Zone Equipment Cooling Sequence 1
  1,                                      !- Zone Equipment Heating or No-Load Sequence 1
  ,                                       !- Zone Equipment Sequential Cooling Fraction 1
  ;                                       !- Zone Equipment Sequential Heating Fraction 1

OS:Space,
  {ed4d85bd-81ce-47e4-b201-83b5f97251c5}, !- Handle
  living space,                           !- Name
  {f88c0403-3b37-4d91-b62e-dfe29d751406}, !- Space Type Name
  ,                                       !- Default Construction Set Name
  ,                                       !- Default Schedule Set Name
  -0,                                     !- Direction of Relative North {deg}
  0,                                      !- X Origin {m}
  0,                                      !- Y Origin {m}
  0,                                      !- Z Origin {m}
  ,                                       !- Building Story Name
  {e53556cd-6a57-4800-aafa-61c2ad9f0656}, !- Thermal Zone Name
  ,                                       !- Part of Total Floor Area
  ,                                       !- Design Specification Outdoor Air Object Name
  {3dfb0fc6-6482-4c60-9379-48c222345896}; !- Building Unit Name

OS:Surface,
  {44d6fe11-ee8e-4b0b-a75a-080ebcad15c8}, !- Handle
  Surface 1,                              !- Name
  Floor,                                  !- Surface Type
  ,                                       !- Construction Name
  {ed4d85bd-81ce-47e4-b201-83b5f97251c5}, !- Space Name
  Foundation,                             !- Outside Boundary Condition
  ,                                       !- Outside Boundary Condition Object
  NoSun,                                  !- Sun Exposure
  NoWind,                                 !- Wind Exposure
  ,                                       !- View Factor to Ground
  ,                                       !- Number of Vertices
  0, 0, 0,                                !- X,Y,Z Vertex 1 {m}
  0, 6.81553519541936, 0,                 !- X,Y,Z Vertex 2 {m}
  13.6310703908387, 6.81553519541936, 0,  !- X,Y,Z Vertex 3 {m}
  13.6310703908387, 0, 0;                 !- X,Y,Z Vertex 4 {m}

OS:Surface,
  {04de1f0f-e99c-46be-8d34-57ab542217f7}, !- Handle
  Surface 2,                              !- Name
  Wall,                                   !- Surface Type
  ,                                       !- Construction Name
  {ed4d85bd-81ce-47e4-b201-83b5f97251c5}, !- Space Name
  Outdoors,                               !- Outside Boundary Condition
  ,                                       !- Outside Boundary Condition Object
  SunExposed,                             !- Sun Exposure
  WindExposed,                            !- Wind Exposure
  ,                                       !- View Factor to Ground
  ,                                       !- Number of Vertices
  0, 6.81553519541936, 2.4384,            !- X,Y,Z Vertex 1 {m}
  0, 6.81553519541936, 0,                 !- X,Y,Z Vertex 2 {m}
  0, 0, 0,                                !- X,Y,Z Vertex 3 {m}
  0, 0, 2.4384;                           !- X,Y,Z Vertex 4 {m}

OS:Surface,
  {b33dbe36-b5b5-49b7-81ac-c1c61521b2f9}, !- Handle
  Surface 3,                              !- Name
  Wall,                                   !- Surface Type
  ,                                       !- Construction Name
  {ed4d85bd-81ce-47e4-b201-83b5f97251c5}, !- Space Name
  Outdoors,                               !- Outside Boundary Condition
  ,                                       !- Outside Boundary Condition Object
  SunExposed,                             !- Sun Exposure
  WindExposed,                            !- Wind Exposure
  ,                                       !- View Factor to Ground
  ,                                       !- Number of Vertices
  13.6310703908387, 6.81553519541936, 2.4384, !- X,Y,Z Vertex 1 {m}
  13.6310703908387, 6.81553519541936, 0,  !- X,Y,Z Vertex 2 {m}
  0, 6.81553519541936, 0,                 !- X,Y,Z Vertex 3 {m}
  0, 6.81553519541936, 2.4384;            !- X,Y,Z Vertex 4 {m}

OS:Surface,
  {0712b1c2-5c1f-41e8-bb97-8e3f5c0ec4a2}, !- Handle
  Surface 4,                              !- Name
  Wall,                                   !- Surface Type
  ,                                       !- Construction Name
  {ed4d85bd-81ce-47e4-b201-83b5f97251c5}, !- Space Name
  Outdoors,                               !- Outside Boundary Condition
  ,                                       !- Outside Boundary Condition Object
  SunExposed,                             !- Sun Exposure
  WindExposed,                            !- Wind Exposure
  ,                                       !- View Factor to Ground
  ,                                       !- Number of Vertices
  13.6310703908387, 0, 2.4384,            !- X,Y,Z Vertex 1 {m}
  13.6310703908387, 0, 0,                 !- X,Y,Z Vertex 2 {m}
  13.6310703908387, 6.81553519541936, 0,  !- X,Y,Z Vertex 3 {m}
  13.6310703908387, 6.81553519541936, 2.4384; !- X,Y,Z Vertex 4 {m}

OS:Surface,
  {bc6adc38-f58a-456f-a86b-306fbf45d3b8}, !- Handle
  Surface 5,                              !- Name
  Wall,                                   !- Surface Type
  ,                                       !- Construction Name
  {ed4d85bd-81ce-47e4-b201-83b5f97251c5}, !- Space Name
  Outdoors,                               !- Outside Boundary Condition
  ,                                       !- Outside Boundary Condition Object
  SunExposed,                             !- Sun Exposure
  WindExposed,                            !- Wind Exposure
  ,                                       !- View Factor to Ground
  ,                                       !- Number of Vertices
  0, 0, 2.4384,                           !- X,Y,Z Vertex 1 {m}
  0, 0, 0,                                !- X,Y,Z Vertex 2 {m}
  13.6310703908387, 0, 0,                 !- X,Y,Z Vertex 3 {m}
  13.6310703908387, 0, 2.4384;            !- X,Y,Z Vertex 4 {m}

OS:Surface,
  {3aac8f12-109f-44d7-8f4e-434f75500758}, !- Handle
  Surface 6,                              !- Name
  RoofCeiling,                            !- Surface Type
  ,                                       !- Construction Name
  {ed4d85bd-81ce-47e4-b201-83b5f97251c5}, !- Space Name
  Surface,                                !- Outside Boundary Condition
  {1668a188-ae1a-4d73-984f-449c22aecfb1}, !- Outside Boundary Condition Object
  NoSun,                                  !- Sun Exposure
  NoWind,                                 !- Wind Exposure
  ,                                       !- View Factor to Ground
  ,                                       !- Number of Vertices
  13.6310703908387, 0, 2.4384,            !- X,Y,Z Vertex 1 {m}
  13.6310703908387, 6.81553519541936, 2.4384, !- X,Y,Z Vertex 2 {m}
  0, 6.81553519541936, 2.4384,            !- X,Y,Z Vertex 3 {m}
  0, 0, 2.4384;                           !- X,Y,Z Vertex 4 {m}

OS:SpaceType,
  {f88c0403-3b37-4d91-b62e-dfe29d751406}, !- Handle
  Space Type 1,                           !- Name
  ,                                       !- Default Construction Set Name
  ,                                       !- Default Schedule Set Name
  ,                                       !- Group Rendering Name
  ,                                       !- Design Specification Outdoor Air Object Name
  ,                                       !- Standards Template
  ,                                       !- Standards Building Type
  living;                                 !- Standards Space Type

OS:Space,
  {97be3ead-26cb-481a-947d-7d4a7c321425}, !- Handle
  living space|story 2,                   !- Name
  {f88c0403-3b37-4d91-b62e-dfe29d751406}, !- Space Type Name
  ,                                       !- Default Construction Set Name
  ,                                       !- Default Schedule Set Name
  -0,                                     !- Direction of Relative North {deg}
  0,                                      !- X Origin {m}
  0,                                      !- Y Origin {m}
  2.4384,                                 !- Z Origin {m}
  ,                                       !- Building Story Name
  {e53556cd-6a57-4800-aafa-61c2ad9f0656}, !- Thermal Zone Name
  ,                                       !- Part of Total Floor Area
  ,                                       !- Design Specification Outdoor Air Object Name
  {3dfb0fc6-6482-4c60-9379-48c222345896}; !- Building Unit Name

OS:Surface,
  {1668a188-ae1a-4d73-984f-449c22aecfb1}, !- Handle
  Surface 7,                              !- Name
  Floor,                                  !- Surface Type
  ,                                       !- Construction Name
  {97be3ead-26cb-481a-947d-7d4a7c321425}, !- Space Name
  Surface,                                !- Outside Boundary Condition
  {3aac8f12-109f-44d7-8f4e-434f75500758}, !- Outside Boundary Condition Object
  NoSun,                                  !- Sun Exposure
  NoWind,                                 !- Wind Exposure
  ,                                       !- View Factor to Ground
  ,                                       !- Number of Vertices
  0, 0, 0,                                !- X,Y,Z Vertex 1 {m}
  0, 6.81553519541936, 0,                 !- X,Y,Z Vertex 2 {m}
  13.6310703908387, 6.81553519541936, 0,  !- X,Y,Z Vertex 3 {m}
  13.6310703908387, 0, 0;                 !- X,Y,Z Vertex 4 {m}

OS:Surface,
  {ca166d2a-1a32-4371-98e8-2b0730a57c8d}, !- Handle
  Surface 8,                              !- Name
  Wall,                                   !- Surface Type
  ,                                       !- Construction Name
  {97be3ead-26cb-481a-947d-7d4a7c321425}, !- Space Name
  Outdoors,                               !- Outside Boundary Condition
  ,                                       !- Outside Boundary Condition Object
  SunExposed,                             !- Sun Exposure
  WindExposed,                            !- Wind Exposure
  ,                                       !- View Factor to Ground
  ,                                       !- Number of Vertices
  0, 6.81553519541936, 2.4384,            !- X,Y,Z Vertex 1 {m}
  0, 6.81553519541936, 0,                 !- X,Y,Z Vertex 2 {m}
  0, 0, 0,                                !- X,Y,Z Vertex 3 {m}
  0, 0, 2.4384;                           !- X,Y,Z Vertex 4 {m}

OS:Surface,
  {6fc7d8d2-3aeb-4015-9460-8bf5037f8f46}, !- Handle
  Surface 9,                              !- Name
  Wall,                                   !- Surface Type
  ,                                       !- Construction Name
  {97be3ead-26cb-481a-947d-7d4a7c321425}, !- Space Name
  Outdoors,                               !- Outside Boundary Condition
  ,                                       !- Outside Boundary Condition Object
  SunExposed,                             !- Sun Exposure
  WindExposed,                            !- Wind Exposure
  ,                                       !- View Factor to Ground
  ,                                       !- Number of Vertices
  13.6310703908387, 6.81553519541936, 2.4384, !- X,Y,Z Vertex 1 {m}
  13.6310703908387, 6.81553519541936, 0,  !- X,Y,Z Vertex 2 {m}
  0, 6.81553519541936, 0,                 !- X,Y,Z Vertex 3 {m}
  0, 6.81553519541936, 2.4384;            !- X,Y,Z Vertex 4 {m}

OS:Surface,
  {f20103ae-fa9b-4316-b47f-459d51d147df}, !- Handle
  Surface 10,                             !- Name
  Wall,                                   !- Surface Type
  ,                                       !- Construction Name
  {97be3ead-26cb-481a-947d-7d4a7c321425}, !- Space Name
  Outdoors,                               !- Outside Boundary Condition
  ,                                       !- Outside Boundary Condition Object
  SunExposed,                             !- Sun Exposure
  WindExposed,                            !- Wind Exposure
  ,                                       !- View Factor to Ground
  ,                                       !- Number of Vertices
  13.6310703908387, 0, 2.4384,            !- X,Y,Z Vertex 1 {m}
  13.6310703908387, 0, 0,                 !- X,Y,Z Vertex 2 {m}
  13.6310703908387, 6.81553519541936, 0,  !- X,Y,Z Vertex 3 {m}
  13.6310703908387, 6.81553519541936, 2.4384; !- X,Y,Z Vertex 4 {m}

OS:Surface,
  {ef1e3187-60be-4cca-af09-57f0b2537936}, !- Handle
  Surface 11,                             !- Name
  Wall,                                   !- Surface Type
  ,                                       !- Construction Name
  {97be3ead-26cb-481a-947d-7d4a7c321425}, !- Space Name
  Outdoors,                               !- Outside Boundary Condition
  ,                                       !- Outside Boundary Condition Object
  SunExposed,                             !- Sun Exposure
  WindExposed,                            !- Wind Exposure
  ,                                       !- View Factor to Ground
  ,                                       !- Number of Vertices
  0, 0, 2.4384,                           !- X,Y,Z Vertex 1 {m}
  0, 0, 0,                                !- X,Y,Z Vertex 2 {m}
  13.6310703908387, 0, 0,                 !- X,Y,Z Vertex 3 {m}
  13.6310703908387, 0, 2.4384;            !- X,Y,Z Vertex 4 {m}

OS:Surface,
  {a020e3a2-3aa5-4176-8801-f906fffaa26d}, !- Handle
  Surface 12,                             !- Name
  RoofCeiling,                            !- Surface Type
  ,                                       !- Construction Name
  {97be3ead-26cb-481a-947d-7d4a7c321425}, !- Space Name
  Surface,                                !- Outside Boundary Condition
  {c40c5326-ad13-4d3b-b974-9515a8a8433a}, !- Outside Boundary Condition Object
  NoSun,                                  !- Sun Exposure
  NoWind,                                 !- Wind Exposure
  ,                                       !- View Factor to Ground
  ,                                       !- Number of Vertices
  13.6310703908387, 0, 2.4384,            !- X,Y,Z Vertex 1 {m}
  13.6310703908387, 6.81553519541936, 2.4384, !- X,Y,Z Vertex 2 {m}
  0, 6.81553519541936, 2.4384,            !- X,Y,Z Vertex 3 {m}
  0, 0, 2.4384;                           !- X,Y,Z Vertex 4 {m}

OS:Surface,
  {c40c5326-ad13-4d3b-b974-9515a8a8433a}, !- Handle
  Surface 13,                             !- Name
  Floor,                                  !- Surface Type
  ,                                       !- Construction Name
  {2e599ae2-703e-4b35-b143-3783129cc991}, !- Space Name
  Surface,                                !- Outside Boundary Condition
  {a020e3a2-3aa5-4176-8801-f906fffaa26d}, !- Outside Boundary Condition Object
  NoSun,                                  !- Sun Exposure
  NoWind,                                 !- Wind Exposure
  ,                                       !- View Factor to Ground
  ,                                       !- Number of Vertices
  0, 6.81553519541936, 0,                 !- X,Y,Z Vertex 1 {m}
  13.6310703908387, 6.81553519541936, 0,  !- X,Y,Z Vertex 2 {m}
  13.6310703908387, 0, 0,                 !- X,Y,Z Vertex 3 {m}
  0, 0, 0;                                !- X,Y,Z Vertex 4 {m}

OS:Surface,
  {f60684c7-2f0f-4671-b7d0-4acf74d87bfa}, !- Handle
  Surface 14,                             !- Name
  RoofCeiling,                            !- Surface Type
  ,                                       !- Construction Name
  {2e599ae2-703e-4b35-b143-3783129cc991}, !- Space Name
  Outdoors,                               !- Outside Boundary Condition
  ,                                       !- Outside Boundary Condition Object
  SunExposed,                             !- Sun Exposure
  WindExposed,                            !- Wind Exposure
  ,                                       !- View Factor to Ground
  ,                                       !- Number of Vertices
  13.6310703908387, 3.40776759770968, 2.00868379885484, !- X,Y,Z Vertex 1 {m}
  0, 3.40776759770968, 2.00868379885484,  !- X,Y,Z Vertex 2 {m}
  0, 0, 0.3048,                           !- X,Y,Z Vertex 3 {m}
  13.6310703908387, 0, 0.3048;            !- X,Y,Z Vertex 4 {m}

OS:Surface,
  {6ec8f2e8-f9a4-4d08-9042-32f080a5e619}, !- Handle
  Surface 15,                             !- Name
  RoofCeiling,                            !- Surface Type
  ,                                       !- Construction Name
  {2e599ae2-703e-4b35-b143-3783129cc991}, !- Space Name
  Outdoors,                               !- Outside Boundary Condition
  ,                                       !- Outside Boundary Condition Object
  SunExposed,                             !- Sun Exposure
  WindExposed,                            !- Wind Exposure
  ,                                       !- View Factor to Ground
  ,                                       !- Number of Vertices
  0, 3.40776759770968, 2.00868379885484,  !- X,Y,Z Vertex 1 {m}
  13.6310703908387, 3.40776759770968, 2.00868379885484, !- X,Y,Z Vertex 2 {m}
  13.6310703908387, 6.81553519541936, 0.3048, !- X,Y,Z Vertex 3 {m}
  0, 6.81553519541936, 0.3048;            !- X,Y,Z Vertex 4 {m}

OS:Surface,
  {86a3635d-8892-48ff-8f20-75650978448b}, !- Handle
  Surface 16,                             !- Name
  Wall,                                   !- Surface Type
  ,                                       !- Construction Name
  {2e599ae2-703e-4b35-b143-3783129cc991}, !- Space Name
  Outdoors,                               !- Outside Boundary Condition
  ,                                       !- Outside Boundary Condition Object
  SunExposed,                             !- Sun Exposure
  WindExposed,                            !- Wind Exposure
  ,                                       !- View Factor to Ground
  ,                                       !- Number of Vertices
  0, 3.40776759770968, 1.70388379885484,  !- X,Y,Z Vertex 1 {m}
  0, 6.81553519541936, 0,                 !- X,Y,Z Vertex 2 {m}
  0, 0, 0;                                !- X,Y,Z Vertex 3 {m}

OS:Surface,
  {1fca6a8d-5e16-4946-aa18-19c37fc707da}, !- Handle
  Surface 17,                             !- Name
  Wall,                                   !- Surface Type
  ,                                       !- Construction Name
  {2e599ae2-703e-4b35-b143-3783129cc991}, !- Space Name
  Outdoors,                               !- Outside Boundary Condition
  ,                                       !- Outside Boundary Condition Object
  SunExposed,                             !- Sun Exposure
  WindExposed,                            !- Wind Exposure
  ,                                       !- View Factor to Ground
  ,                                       !- Number of Vertices
  13.6310703908387, 3.40776759770968, 1.70388379885484, !- X,Y,Z Vertex 1 {m}
  13.6310703908387, 0, 0,                 !- X,Y,Z Vertex 2 {m}
  13.6310703908387, 6.81553519541936, 0;  !- X,Y,Z Vertex 3 {m}

OS:Space,
  {2e599ae2-703e-4b35-b143-3783129cc991}, !- Handle
  unfinished attic space,                 !- Name
  {5f183012-c3f3-4954-956d-f15063ba01b0}, !- Space Type Name
  ,                                       !- Default Construction Set Name
  ,                                       !- Default Schedule Set Name
  -0,                                     !- Direction of Relative North {deg}
  0,                                      !- X Origin {m}
  0,                                      !- Y Origin {m}
  4.8768,                                 !- Z Origin {m}
  ,                                       !- Building Story Name
  {cd3ecd8e-51ba-44b6-b829-fae23621ca94}; !- Thermal Zone Name

OS:ThermalZone,
  {cd3ecd8e-51ba-44b6-b829-fae23621ca94}, !- Handle
  unfinished attic zone,                  !- Name
  ,                                       !- Multiplier
  ,                                       !- Ceiling Height {m}
  ,                                       !- Volume {m3}
  ,                                       !- Floor Area {m2}
  ,                                       !- Zone Inside Convection Algorithm
  ,                                       !- Zone Outside Convection Algorithm
  ,                                       !- Zone Conditioning Equipment List Name
  {d3fbf7fc-a2f5-4757-927f-c77b5b67cc44}, !- Zone Air Inlet Port List
  {d36ee8b9-351b-433f-b044-9b9f53884577}, !- Zone Air Exhaust Port List
  {165daa16-9221-4ead-8a74-381cb6ec38ea}, !- Zone Air Node Name
  {8e5bc514-8630-4af5-93dd-873d33be3eab}, !- Zone Return Air Port List
  ,                                       !- Primary Daylighting Control Name
  ,                                       !- Fraction of Zone Controlled by Primary Daylighting Control
  ,                                       !- Secondary Daylighting Control Name
  ,                                       !- Fraction of Zone Controlled by Secondary Daylighting Control
  ,                                       !- Illuminance Map Name
  ,                                       !- Group Rendering Name
  ,                                       !- Thermostat Name
  No;                                     !- Use Ideal Air Loads

OS:Node,
  {c9153c4e-f370-4d07-860e-2948a766048d}, !- Handle
  Node 2,                                 !- Name
  {165daa16-9221-4ead-8a74-381cb6ec38ea}, !- Inlet Port
  ;                                       !- Outlet Port

OS:Connection,
  {165daa16-9221-4ead-8a74-381cb6ec38ea}, !- Handle
  {e5aa834c-d3d1-4370-96cf-7c81e665bfb7}, !- Name
  {cd3ecd8e-51ba-44b6-b829-fae23621ca94}, !- Source Object
  11,                                     !- Outlet Port
  {c9153c4e-f370-4d07-860e-2948a766048d}, !- Target Object
  2;                                      !- Inlet Port

OS:PortList,
  {d3fbf7fc-a2f5-4757-927f-c77b5b67cc44}, !- Handle
  {8e4d8e84-1e7a-4445-a2c7-1150b16dd445}, !- Name
  {cd3ecd8e-51ba-44b6-b829-fae23621ca94}; !- HVAC Component

OS:PortList,
  {d36ee8b9-351b-433f-b044-9b9f53884577}, !- Handle
  {58b794ba-1695-4bbc-8370-1ab616493521}, !- Name
  {cd3ecd8e-51ba-44b6-b829-fae23621ca94}; !- HVAC Component
