!- NOTE: Auto-generated from /test/osw_files/SFD_Successful_EnergyPlus_Run_AMY_PV_TwoDays.osw

OS:Version,
  {a3288d5a-3fa5-48ae-be13-a986689c13fe}, !- Handle
  3.2.1;                                  !- Version Identifier

OS:SimulationControl,
  {343cb596-c8c1-4d18-a1ce-107dfcc3912e}, !- Handle
  ,                                       !- Do Zone Sizing Calculation
  ,                                       !- Do System Sizing Calculation
  ,                                       !- Do Plant Sizing Calculation
  No;                                     !- Run Simulation for Sizing Periods

OS:Timestep,
  {85a14eac-2ef0-4b50-a354-a9c69886cd7b}, !- Handle
  6;                                      !- Number of Timesteps per Hour

OS:ShadowCalculation,
  {8f6175a5-4ce9-42f9-96d4-019daef6d7d6}, !- Handle
  PolygonClipping,                        !- Shading Calculation Method
  ,                                       !- Shading Calculation Update Frequency Method
  20,                                     !- Shading Calculation Update Frequency
  200,                                    !- Maximum Figures in Shadow Overlap Calculations
  ,                                       !- Polygon Clipping Algorithm
  512,                                    !- Pixel Counting Resolution
  DetailedSkyDiffuseModeling,             !- Sky Diffuse Modeling Algorithm
  No,                                     !- Output External Shading Calculation Results
  No,                                     !- Disable Self-Shading Within Shading Zone Groups
  No;                                     !- Disable Self-Shading From Shading Zone Groups to Other Zones

OS:SurfaceConvectionAlgorithm:Outside,
  {58ff7279-7f23-4615-a3f2-79f35e07c45d}, !- Handle
  DOE-2;                                  !- Algorithm

OS:SurfaceConvectionAlgorithm:Inside,
  {2bf3364d-93d3-4036-89d2-db590ae4f065}, !- Handle
  TARP;                                   !- Algorithm

OS:ZoneCapacitanceMultiplier:ResearchSpecial,
  {40c8b8dc-d18b-437e-a003-2e2372e5d49b}, !- Handle
  ,                                       !- Temperature Capacity Multiplier
  15,                                     !- Humidity Capacity Multiplier
  ;                                       !- Carbon Dioxide Capacity Multiplier

OS:RunPeriod,
  {72e890e1-ac65-4e00-b90a-db5c528b57da}, !- Handle
  Run Period 1,                           !- Name
  1,                                      !- Begin Month
  23,                                     !- Begin Day of Month
  1,                                      !- End Month
  24,                                     !- End Day of Month
  ,                                       !- Use Weather File Holidays and Special Days
  ,                                       !- Use Weather File Daylight Saving Period
  ,                                       !- Apply Weekend Holiday Rule
  ,                                       !- Use Weather File Rain Indicators
  ,                                       !- Use Weather File Snow Indicators
  ;                                       !- Number of Times Runperiod to be Repeated

OS:YearDescription,
  {77037da0-09c3-42a9-b428-47c6ee56a9ca}, !- Handle
  2014,                                   !- Calendar Year
  ,                                       !- Day of Week for Start Day
  ;                                       !- Is Leap Year

OS:WeatherFile,
  {314f3e5b-296b-4d44-8a0c-5f6cf0b185eb}, !- Handle
  Boulder,                                !- City
  CO,                                     !- State Province Region
  US,                                     !- Country
  NSRDB 2.0.1 2014 AMY,                   !- Data Source
  0-20000-0-72469,                        !- WMO Number
  40.13,                                  !- Latitude {deg}
  -105.22,                                !- Longitude {deg}
  -7,                                     !- Time Zone {hr}
  1615.5,                                 !- Elevation {m}
  /mnt/c/git/resstock/resources/measures/HPXMLtoOpenStudio/weather/0465925_US_CO_Boulder_8013_0-20000-0-72469_40.13_-105.22_NSRDB_2.0.1_AMY_2014.epw, !- Url
  A63910BF;                               !- Checksum

OS:AdditionalProperties,
  {1a424575-8501-4eb4-bf22-b7848aed7648}, !- Handle
  {314f3e5b-296b-4d44-8a0c-5f6cf0b185eb}, !- Object Name
  EPWHeaderCity,                          !- Feature Name 1
  String,                                 !- Feature Data Type 1
  Boulder,                                !- Feature Value 1
  EPWHeaderState,                         !- Feature Name 2
  String,                                 !- Feature Data Type 2
  CO,                                     !- Feature Value 2
  EPWHeaderCountry,                       !- Feature Name 3
  String,                                 !- Feature Data Type 3
  US,                                     !- Feature Value 3
  EPWHeaderDataSource,                    !- Feature Name 4
  String,                                 !- Feature Data Type 4
  NSRDB 2.0.1 2014 AMY,                   !- Feature Value 4
  EPWHeaderStation,                       !- Feature Name 5
  String,                                 !- Feature Data Type 5
  0-20000-0-72469,                        !- Feature Value 5
  EPWHeaderLatitude,                      !- Feature Name 6
  Double,                                 !- Feature Data Type 6
  40.130000000000003,                     !- Feature Value 6
  EPWHeaderLongitude,                     !- Feature Name 7
  Double,                                 !- Feature Data Type 7
  -105.22,                                !- Feature Value 7
  EPWHeaderTimezone,                      !- Feature Name 8
  Double,                                 !- Feature Data Type 8
  -7,                                     !- Feature Value 8
  EPWHeaderAltitude,                      !- Feature Name 9
  Double,                                 !- Feature Data Type 9
  5300.1968503937005,                     !- Feature Value 9
  EPWHeaderLocalPressure,                 !- Feature Name 10
  Double,                                 !- Feature Data Type 10
  0.82279578489595584,                    !- Feature Value 10
  EPWHeaderRecordsPerHour,                !- Feature Name 11
  Double,                                 !- Feature Data Type 11
  1,                                      !- Feature Value 11
  EPWDataAnnualAvgDrybulb,                !- Feature Name 12
  Double,                                 !- Feature Data Type 12
  46.153876712328739,                     !- Feature Value 12
  EPWDataAnnualMinDrybulb,                !- Feature Name 13
  Double,                                 !- Feature Data Type 13
  -8.3200000000000003,                    !- Feature Value 13
  EPWDataAnnualMaxDrybulb,                !- Feature Name 14
  Double,                                 !- Feature Data Type 14
  94.819999999999993,                     !- Feature Value 14
  EPWDataCDD50F,                          !- Feature Name 15
  Double,                                 !- Feature Data Type 15
  2020.8374999999992,                     !- Feature Value 15
  EPWDataCDD65F,                          !- Feature Name 16
  Double,                                 !- Feature Data Type 16
  257.56500000000011,                     !- Feature Value 16
  EPWDataHDD50F,                          !- Feature Name 17
  Double,                                 !- Feature Data Type 17
  3424.6724999999997,                     !- Feature Value 17
  EPWDataHDD65F,                          !- Feature Name 18
  Double,                                 !- Feature Data Type 18
  7136.400000000006,                      !- Feature Value 18
  EPWDataAnnualAvgWindspeed,              !- Feature Name 19
  Double,                                 !- Feature Data Type 19
  3.2218264840182589,                     !- Feature Value 19
  EPWDataMonthlyAvgDrybulbs,              !- Feature Name 20
  String,                                 !- Feature Data Type 20
  26.308951612903222&#4428.098928571428576&#4435.44443548387097&#4442.68825000000001&#4451.39161290322581&#4462.69400000000002&#4468.69677419354842&#4464.85846774193544&#4460.864999999999995&#4450.01451612903226&#4433.357&#4428.16483870967742, !- Feature Value 20
  EPWDataGroundMonthlyTemps,              !- Feature Name 21
  String,                                 !- Feature Data Type 21
  38.52739411432134&#4435.285469995369624&#4435.025845085692424&#4436.56430373078814&#4442.74035789429769&#4448.88764137749348&#4454.217007620475954&#4457.59303006231386&#4457.87984171192119&#4455.134014887414594&#4449.940550612577795&#4443.98184074832068, !- Feature Value 21
  EPWDataWSF,                             !- Feature Name 22
  Double,                                 !- Feature Data Type 22
  0.55793636363636512,                    !- Feature Value 22
  EPWDataMonthlyAvgDailyHighDrybulbs,     !- Feature Name 23
  String,                                 !- Feature Data Type 23
  37.034193548387094&#4439.82357142857143&#4449.134838709677425&#4456.798&#4465.19548387096775&#4479.982&#4483.56129032258065&#4478.8&#4476.80199999999999&#4465.96774193548387&#4446.268&#4439.14193548387097, !- Feature Value 23
  EPWDataMonthlyAvgDailyLowDrybulbs,      !- Feature Name 24
  String,                                 !- Feature Data Type 24
  17.68709677419355&#4418.500000000000007&#4424.858064516129033&#4429.858&#4437.61483870967742&#4446.808&#4455.278064516129035&#4452.81032258064516&#4447.798&#4438.46258064516129&#4423.336&#4420.64258064516129, !- Feature Value 24
  EPWDesignHeatingDrybulb,                !- Feature Name 25
  Double,                                 !- Feature Data Type 25
  2.8399999999999999,                     !- Feature Value 25
  EPWDesignHeatingWindspeed,              !- Feature Name 26
  Double,                                 !- Feature Data Type 26
  2.8645161290322578,                     !- Feature Value 26
  EPWDesignCoolingDrybulb,                !- Feature Name 27
  Double,                                 !- Feature Data Type 27
  87.439999999999998,                     !- Feature Value 27
  EPWDesignCoolingWetbulb,                !- Feature Name 28
  Double,                                 !- Feature Data Type 28
  58.634821912138641,                     !- Feature Value 28
  EPWDesignCoolingHumidityRatio,          !- Feature Name 29
  Double,                                 !- Feature Data Type 29
  0.0059863200317437151,                  !- Feature Value 29
  EPWDesignCoolingWindspeed,              !- Feature Name 30
  Double,                                 !- Feature Data Type 30
  1.9312499999999999,                     !- Feature Value 30
  EPWDesignDailyTemperatureRange,         !- Feature Name 31
  Double,                                 !- Feature Data Type 31
  25.989677419354834,                     !- Feature Value 31
  EPWDesignDehumidDrybulb,                !- Feature Name 32
  Double,                                 !- Feature Data Type 32
  64.679252336448599,                     !- Feature Value 32
  EPWDesignDehumidHumidityRatio,          !- Feature Name 33
  Double,                                 !- Feature Data Type 33
  0.010292782366117819,                   !- Feature Value 33
  EPWDesignCoolingDirectNormal,           !- Feature Name 34
  Double,                                 !- Feature Data Type 34
  1016,                                   !- Feature Value 34
  EPWDesignCoolingDiffuseHorizontal,      !- Feature Name 35
  Double,                                 !- Feature Data Type 35
  96;                                     !- Feature Value 35

OS:Site,
  {e94477be-4e06-427f-978d-cf4717330595}, !- Handle
  Boulder_CO_US,                          !- Name
  40.13,                                  !- Latitude {deg}
  -105.22,                                !- Longitude {deg}
  -7,                                     !- Time Zone {hr}
  1615.5,                                 !- Elevation {m}
  Suburbs;                                !- Terrain

OS:Site:WaterMainsTemperature,
  {51c42690-1ce8-46e0-bfd5-000746b89654}, !- Handle
  Correlation,                            !- Calculation Method
  ,                                       !- Temperature Schedule Name
  7.86326484018263,                       !- Annual Average Outdoor Air Temperature {C}
  23.5487903225807;                       !- Maximum Difference In Monthly Average Outdoor Air Temperatures {deltaC}

OS:RunPeriodControl:DaylightSavingTime,
  {1013a825-1d71-45de-a250-3ce85367e9f9}, !- Handle
  3/12,                                   !- Start Date
  11/5;                                   !- End Date

OS:Site:GroundTemperature:Deep,
  {7ed3adba-8f51-4e2f-8994-ddf8d669b52c}, !- Handle
  7.86326484018263,                       !- January Deep Ground Temperature {C}
  7.86326484018263,                       !- February Deep Ground Temperature {C}
  7.86326484018263,                       !- March Deep Ground Temperature {C}
  7.86326484018263,                       !- April Deep Ground Temperature {C}
  7.86326484018263,                       !- May Deep Ground Temperature {C}
  7.86326484018263,                       !- June Deep Ground Temperature {C}
  7.86326484018263,                       !- July Deep Ground Temperature {C}
  7.86326484018263,                       !- August Deep Ground Temperature {C}
  7.86326484018263,                       !- September Deep Ground Temperature {C}
  7.86326484018263,                       !- October Deep Ground Temperature {C}
  7.86326484018263,                       !- November Deep Ground Temperature {C}
  7.86326484018263;                       !- December Deep Ground Temperature {C}

OS:Building,
  {673a8e2b-78b5-4b8b-b5ed-68aa08905359}, !- Handle
  Building 1,                             !- Name
  ,                                       !- Building Sector Type
  22.5,                                   !- North Axis {deg}
  ,                                       !- Nominal Floor to Floor Height {m}
  ,                                       !- Space Type Name
  ,                                       !- Default Construction Set Name
  ,                                       !- Default Schedule Set Name
  2,                                      !- Standards Number of Stories
  2,                                      !- Standards Number of Above Ground Stories
  ,                                       !- Standards Template
  singlefamilydetached,                   !- Standards Building Type
  1;                                      !- Standards Number of Living Units

OS:AdditionalProperties,
  {db429f84-8faa-41aa-9d8e-bcf23bd38f59}, !- Handle
  {673a8e2b-78b5-4b8b-b5ed-68aa08905359}, !- Object Name
  Total Units Modeled,                    !- Feature Name 1
  Integer,                                !- Feature Data Type 1
  1,                                      !- Feature Value 1
  has_water_heater_flue,                  !- Feature Name 2
  Boolean,                                !- Feature Data Type 2
  true,                                   !- Feature Value 2
  has_hvac_flue,                          !- Feature Name 3
  Boolean,                                !- Feature Data Type 3
  true;                                   !- Feature Value 3

OS:ThermalZone,
  {0199ffd5-33a8-4bfd-9a3f-d64df5a5a8c6}, !- Handle
  living zone,                            !- Name
  ,                                       !- Multiplier
  ,                                       !- Ceiling Height {m}
  ,                                       !- Volume {m3}
  ,                                       !- Floor Area {m2}
  ,                                       !- Zone Inside Convection Algorithm
  ,                                       !- Zone Outside Convection Algorithm
  ,                                       !- Zone Conditioning Equipment List Name
  {81b95b1e-b2db-49ff-80aa-1b7332915357}, !- Zone Air Inlet Port List
  {84329bef-3b42-4b8a-a1f2-7447ac31af25}, !- Zone Air Exhaust Port List
  {6b371441-8cb9-4df1-a339-d6c890b1579a}, !- Zone Air Node Name
  {77a46f21-2811-4043-ab59-8702d88a156b}, !- Zone Return Air Port List
  ,                                       !- Primary Daylighting Control Name
  ,                                       !- Fraction of Zone Controlled by Primary Daylighting Control
  ,                                       !- Secondary Daylighting Control Name
  ,                                       !- Fraction of Zone Controlled by Secondary Daylighting Control
  ,                                       !- Illuminance Map Name
  ,                                       !- Group Rendering Name
  {db1ad4c6-cda7-4bf7-8349-40d0b4cc5611}, !- Thermostat Name
  No;                                     !- Use Ideal Air Loads

OS:Node,
  {701aba79-5dbb-443a-b25d-43e93cc97aa9}, !- Handle
  Node 1,                                 !- Name
  {6b371441-8cb9-4df1-a339-d6c890b1579a}, !- Inlet Port
  ;                                       !- Outlet Port

OS:Connection,
  {6b371441-8cb9-4df1-a339-d6c890b1579a}, !- Handle
  {0199ffd5-33a8-4bfd-9a3f-d64df5a5a8c6}, !- Source Object
  11,                                     !- Outlet Port
  {701aba79-5dbb-443a-b25d-43e93cc97aa9}, !- Target Object
  2;                                      !- Inlet Port

OS:PortList,
  {81b95b1e-b2db-49ff-80aa-1b7332915357}, !- Handle
  {0199ffd5-33a8-4bfd-9a3f-d64df5a5a8c6}, !- HVAC Component
  {409797e8-5f62-4f96-ba54-677c00ed85fc}, !- Port 1
  {25f10229-1783-4c03-8c3e-ab42717cebe6}; !- Port 2

OS:PortList,
  {84329bef-3b42-4b8a-a1f2-7447ac31af25}, !- Handle
  {0199ffd5-33a8-4bfd-9a3f-d64df5a5a8c6}; !- HVAC Component

OS:PortList,
  {77a46f21-2811-4043-ab59-8702d88a156b}, !- Handle
  {0199ffd5-33a8-4bfd-9a3f-d64df5a5a8c6}, !- HVAC Component
  {c461c6d3-7dd5-4c10-b045-41bb346b6168}, !- Port 1
  {017e607d-109d-4644-bf9d-f391590b48c2}; !- Port 2

OS:Sizing:Zone,
  {0f3dace5-0462-49e1-baf3-cb5cb7b5f1d4}, !- Handle
  {0199ffd5-33a8-4bfd-9a3f-d64df5a5a8c6}, !- Zone or ZoneList Name
  SupplyAirTemperature,                   !- Zone Cooling Design Supply Air Temperature Input Method
  14,                                     !- Zone Cooling Design Supply Air Temperature {C}
  11.11,                                  !- Zone Cooling Design Supply Air Temperature Difference {deltaC}
  SupplyAirTemperature,                   !- Zone Heating Design Supply Air Temperature Input Method
  40,                                     !- Zone Heating Design Supply Air Temperature {C}
  11.11,                                  !- Zone Heating Design Supply Air Temperature Difference {deltaC}
  0.0085,                                 !- Zone Cooling Design Supply Air Humidity Ratio {kg-H2O/kg-air}
  0.008,                                  !- Zone Heating Design Supply Air Humidity Ratio {kg-H2O/kg-air}
  ,                                       !- Zone Heating Sizing Factor
  ,                                       !- Zone Cooling Sizing Factor
  DesignDay,                              !- Cooling Design Air Flow Method
  ,                                       !- Cooling Design Air Flow Rate {m3/s}
  ,                                       !- Cooling Minimum Air Flow per Zone Floor Area {m3/s-m2}
  ,                                       !- Cooling Minimum Air Flow {m3/s}
  ,                                       !- Cooling Minimum Air Flow Fraction
  DesignDay,                              !- Heating Design Air Flow Method
  ,                                       !- Heating Design Air Flow Rate {m3/s}
  ,                                       !- Heating Maximum Air Flow per Zone Floor Area {m3/s-m2}
  ,                                       !- Heating Maximum Air Flow {m3/s}
  ,                                       !- Heating Maximum Air Flow Fraction
  No,                                     !- Account for Dedicated Outdoor Air System
  NeutralSupplyAir,                       !- Dedicated Outdoor Air System Control Strategy
  autosize,                               !- Dedicated Outdoor Air Low Setpoint Temperature for Design {C}
  autosize;                               !- Dedicated Outdoor Air High Setpoint Temperature for Design {C}

OS:ZoneHVAC:EquipmentList,
  {68c544f4-a5e4-4286-8dbd-7fe63ad646be}, !- Handle
  Zone HVAC Equipment List 1,             !- Name
  {0199ffd5-33a8-4bfd-9a3f-d64df5a5a8c6}, !- Thermal Zone
  SequentialLoad,                         !- Load Distribution Scheme
  {5da397d9-0b20-4da6-91c8-1c9f90f1907a}, !- Zone Equipment 1
  1,                                      !- Zone Equipment Cooling Sequence 1
  1,                                      !- Zone Equipment Heating or No-Load Sequence 1
  ,                                       !- Zone Equipment Sequential Cooling Fraction Schedule Name 1
  ,                                       !- Zone Equipment Sequential Heating Fraction Schedule Name 1
  {a01b2a36-2cf2-412a-9f25-64c6180333c4}, !- Zone Equipment 2
  2,                                      !- Zone Equipment Cooling Sequence 2
  2,                                      !- Zone Equipment Heating or No-Load Sequence 2
  ,                                       !- Zone Equipment Sequential Cooling Fraction Schedule Name 2
  ;                                       !- Zone Equipment Sequential Heating Fraction Schedule Name 2

OS:Space,
  {e60ffa11-9811-414e-a797-a60e3f5d1442}, !- Handle
  living space,                           !- Name
  {1e87d3ec-5ab0-43c2-ab77-976a344b03b4}, !- Space Type Name
  ,                                       !- Default Construction Set Name
  ,                                       !- Default Schedule Set Name
  -0,                                     !- Direction of Relative North {deg}
  0,                                      !- X Origin {m}
  0,                                      !- Y Origin {m}
  0,                                      !- Z Origin {m}
  ,                                       !- Building Story Name
  {0199ffd5-33a8-4bfd-9a3f-d64df5a5a8c6}, !- Thermal Zone Name
  ,                                       !- Part of Total Floor Area
  ,                                       !- Design Specification Outdoor Air Object Name
  {60567d2c-f931-4249-9550-4253923a61bc}; !- Building Unit Name

OS:Surface,
  {e7d63999-223d-4788-8327-25bf327b2444}, !- Handle
  Surface 1,                              !- Name
  Floor,                                  !- Surface Type
  {547de001-211e-478d-a1a1-12e2907bdf51}, !- Construction Name
  {e60ffa11-9811-414e-a797-a60e3f5d1442}, !- Space Name
  Foundation,                             !- Outside Boundary Condition
  {87018cdc-823b-4a01-be18-e22fb9b56fe0}, !- Outside Boundary Condition Object
  NoSun,                                  !- Sun Exposure
  NoWind,                                 !- Wind Exposure
  ,                                       !- View Factor to Ground
  ,                                       !- Number of Vertices
  0, 0, 0,                                !- X,Y,Z Vertex 1 {m}
  0, 1.524, 0,                            !- X,Y,Z Vertex 2 {m}
  3.048, 1.524, 0,                        !- X,Y,Z Vertex 3 {m}
  3.048, 0, 0;                            !- X,Y,Z Vertex 4 {m}

OS:Surface,
  {ca29d707-cb93-4a48-99a3-905500cb6b85}, !- Handle
  Surface 2,                              !- Name
  Wall,                                   !- Surface Type
  {f9a7f1d8-250b-4cf4-853b-a167def30f94}, !- Construction Name
  {e60ffa11-9811-414e-a797-a60e3f5d1442}, !- Space Name
  Outdoors,                               !- Outside Boundary Condition
  ,                                       !- Outside Boundary Condition Object
  SunExposed,                             !- Sun Exposure
  WindExposed,                            !- Wind Exposure
  ,                                       !- View Factor to Ground
  ,                                       !- Number of Vertices
  0, 1.524, 2.4384,                       !- X,Y,Z Vertex 1 {m}
  0, 1.524, 0,                            !- X,Y,Z Vertex 2 {m}
  0, 0, 0,                                !- X,Y,Z Vertex 3 {m}
  0, 0, 2.4384;                           !- X,Y,Z Vertex 4 {m}

OS:Surface,
  {4468dc17-b118-4746-936a-851964fd8c34}, !- Handle
  Surface 3,                              !- Name
  Wall,                                   !- Surface Type
  {f9a7f1d8-250b-4cf4-853b-a167def30f94}, !- Construction Name
  {e60ffa11-9811-414e-a797-a60e3f5d1442}, !- Space Name
  Outdoors,                               !- Outside Boundary Condition
  ,                                       !- Outside Boundary Condition Object
  SunExposed,                             !- Sun Exposure
  WindExposed,                            !- Wind Exposure
  ,                                       !- View Factor to Ground
  ,                                       !- Number of Vertices
  3.048, 1.524, 2.4384,                   !- X,Y,Z Vertex 1 {m}
  3.048, 1.524, 0,                        !- X,Y,Z Vertex 2 {m}
  0, 1.524, 0,                            !- X,Y,Z Vertex 3 {m}
  0, 1.524, 2.4384;                       !- X,Y,Z Vertex 4 {m}

OS:Surface,
  {571b22f9-c645-48ed-9789-2919d67bd3f3}, !- Handle
  Surface 4,                              !- Name
  Wall,                                   !- Surface Type
  {f9a7f1d8-250b-4cf4-853b-a167def30f94}, !- Construction Name
  {e60ffa11-9811-414e-a797-a60e3f5d1442}, !- Space Name
  Outdoors,                               !- Outside Boundary Condition
  ,                                       !- Outside Boundary Condition Object
  SunExposed,                             !- Sun Exposure
  WindExposed,                            !- Wind Exposure
  ,                                       !- View Factor to Ground
  ,                                       !- Number of Vertices
  3.048, 0, 2.4384,                       !- X,Y,Z Vertex 1 {m}
  3.048, 0, 0,                            !- X,Y,Z Vertex 2 {m}
  3.048, 1.524, 0,                        !- X,Y,Z Vertex 3 {m}
  3.048, 1.524, 2.4384;                   !- X,Y,Z Vertex 4 {m}

OS:Surface,
  {28b1875b-8e9e-4daa-b933-6f5b560c154b}, !- Handle
  Surface 5,                              !- Name
  Wall,                                   !- Surface Type
  {f9a7f1d8-250b-4cf4-853b-a167def30f94}, !- Construction Name
  {e60ffa11-9811-414e-a797-a60e3f5d1442}, !- Space Name
  Outdoors,                               !- Outside Boundary Condition
  ,                                       !- Outside Boundary Condition Object
  SunExposed,                             !- Sun Exposure
  WindExposed,                            !- Wind Exposure
  ,                                       !- View Factor to Ground
  ,                                       !- Number of Vertices
  1.04865714285714, 0, -1.02636730670014e-07, !- X,Y,Z Vertex 1 {m}
  3.048, 0, 0,                            !- X,Y,Z Vertex 2 {m}
  3.048, 0, 2.4384,                       !- X,Y,Z Vertex 3 {m}
  1.04865714285714, 0, 2.43840010263673;  !- X,Y,Z Vertex 4 {m}

OS:Surface,
  {7f6838bd-89d1-49a3-b500-3dfe747a9775}, !- Handle
  Surface 6,                              !- Name
  RoofCeiling,                            !- Surface Type
  {8c1d8e8a-8878-4e1d-9b19-ace9072e4533}, !- Construction Name
  {e60ffa11-9811-414e-a797-a60e3f5d1442}, !- Space Name
  Surface,                                !- Outside Boundary Condition
  {ca790281-a801-4245-bc80-aa0a904491cd}, !- Outside Boundary Condition Object
  NoSun,                                  !- Sun Exposure
  NoWind,                                 !- Wind Exposure
  ,                                       !- View Factor to Ground
  ,                                       !- Number of Vertices
  3.048, 0, 2.4384,                       !- X,Y,Z Vertex 1 {m}
  3.048, 1.524, 2.4384,                   !- X,Y,Z Vertex 2 {m}
  0, 1.524, 2.4384,                       !- X,Y,Z Vertex 3 {m}
  0, 0, 2.4384;                           !- X,Y,Z Vertex 4 {m}

OS:SpaceType,
  {1e87d3ec-5ab0-43c2-ab77-976a344b03b4}, !- Handle
  Space Type 1,                           !- Name
  ,                                       !- Default Construction Set Name
  ,                                       !- Default Schedule Set Name
  ,                                       !- Group Rendering Name
  ,                                       !- Design Specification Outdoor Air Object Name
  ,                                       !- Standards Template
  ,                                       !- Standards Building Type
  living;                                 !- Standards Space Type

OS:Space,
  {eda50539-3e44-455e-9354-657acb68d704}, !- Handle
  living space|story 2,                   !- Name
  {1e87d3ec-5ab0-43c2-ab77-976a344b03b4}, !- Space Type Name
  ,                                       !- Default Construction Set Name
  ,                                       !- Default Schedule Set Name
  -0,                                     !- Direction of Relative North {deg}
  0,                                      !- X Origin {m}
  0,                                      !- Y Origin {m}
  2.4384,                                 !- Z Origin {m}
  ,                                       !- Building Story Name
  {0199ffd5-33a8-4bfd-9a3f-d64df5a5a8c6}, !- Thermal Zone Name
  ,                                       !- Part of Total Floor Area
  ,                                       !- Design Specification Outdoor Air Object Name
  {60567d2c-f931-4249-9550-4253923a61bc}; !- Building Unit Name

OS:Surface,
  {ca790281-a801-4245-bc80-aa0a904491cd}, !- Handle
  Surface 7,                              !- Name
  Floor,                                  !- Surface Type
  {f884a9dc-a401-406c-8d3e-c2ac37686e22}, !- Construction Name
  {eda50539-3e44-455e-9354-657acb68d704}, !- Space Name
  Surface,                                !- Outside Boundary Condition
  {7f6838bd-89d1-49a3-b500-3dfe747a9775}, !- Outside Boundary Condition Object