!- NOTE: Auto-generated from /test/osw_files/SFD_HVACSizing_Equip_GF_ACV_Autosize.osw

OS:Version,
<<<<<<< HEAD
<<<<<<< HEAD
  {5deb7393-e595-44d9-ae9b-842b8a42b369}, !- Handle
  2.9.1;                                  !- Version Identifier

OS:SimulationControl,
  {f7fce1e9-7728-4304-8cf2-b3350191cdaa}, !- Handle
=======
  {ff2cf10e-d5b4-42b9-835a-7670e244c263}, !- Handle
  3.2.1;                                  !- Version Identifier

OS:SimulationControl,
  {ec7cf47a-1f4f-411c-9999-8926cb4d9d92}, !- Handle
>>>>>>> develop
=======
  {cf3036b0-d1b0-43f9-bd28-7c9fc1754014}, !- Handle
  3.2.1;                                  !- Version Identifier

OS:SimulationControl,
  {d1967e2e-5e2e-4ead-a0aa-435e7fdc7dad}, !- Handle
>>>>>>> develop
  ,                                       !- Do Zone Sizing Calculation
  ,                                       !- Do System Sizing Calculation
  ,                                       !- Do Plant Sizing Calculation
  No;                                     !- Run Simulation for Sizing Periods

OS:Timestep,
<<<<<<< HEAD
<<<<<<< HEAD
  {45471c82-2f68-4d73-82b6-66fd8f740c6c}, !- Handle
  6;                                      !- Number of Timesteps per Hour

OS:ShadowCalculation,
  {73af1fc0-0eae-422c-b48d-9363d791cc4f}, !- Handle
  20,                                     !- Calculation Frequency
  200;                                    !- Maximum Figures in Shadow Overlap Calculations

OS:SurfaceConvectionAlgorithm:Outside,
  {b8e9bf73-67e7-4686-8b28-7c0e96eedad9}, !- Handle
  DOE-2;                                  !- Algorithm

OS:SurfaceConvectionAlgorithm:Inside,
  {ca372914-6deb-4446-8f45-226c7317c87b}, !- Handle
  TARP;                                   !- Algorithm

OS:ZoneCapacitanceMultiplier:ResearchSpecial,
  {61f2a54f-98f1-416c-89da-2013e9595cec}, !- Handle
=======
  {b4493374-32a5-4ec6-b797-1d1e1191f48b}, !- Handle
=======
  {532203bf-8af6-4ef3-9d0c-74e4a87f4ec1}, !- Handle
>>>>>>> develop
  6;                                      !- Number of Timesteps per Hour

OS:ShadowCalculation,
  {34f45b13-fcc4-4bd3-ae44-086bcc2a59f4}, !- Handle
  PolygonClipping,                        !- Shading Calculation Method
  ,                                       !- Shading Calculation Update Frequency Method
  20,                                     !- Shading Calculation Update Frequency
  200,                                    !- Maximum Figures in Shadow Overlap Calculations
  ,                                       !- Polygon Clipping Algorithm
  512,                                    !- Pixel Counting Resolution
  DetailedSkyDiffuseModeling,             !- Sky Diffuse Modeling Algorithm
  No,                                     !- Output External Shading Calculation Results
  No,                                     !- Disable Self-Shading Within Shading Zone Groups
  No;                                     !- Disable Self-Shading From Shading Zone Groups to Other Zones

OS:SurfaceConvectionAlgorithm:Outside,
  {ee135a4f-cbce-477a-9f6c-f9142568802f}, !- Handle
  DOE-2;                                  !- Algorithm

OS:SurfaceConvectionAlgorithm:Inside,
  {2cbfc7e4-3dd9-4a12-81dd-55e11ddf5f60}, !- Handle
  TARP;                                   !- Algorithm

OS:ZoneCapacitanceMultiplier:ResearchSpecial,
<<<<<<< HEAD
  {172018f1-6e2e-47c6-9606-7a20b80ee360}, !- Handle
>>>>>>> develop
=======
  {ce8d2643-6bf5-4174-94ef-4c48b12715f1}, !- Handle
>>>>>>> develop
  ,                                       !- Temperature Capacity Multiplier
  15,                                     !- Humidity Capacity Multiplier
  ;                                       !- Carbon Dioxide Capacity Multiplier

OS:RunPeriod,
<<<<<<< HEAD
<<<<<<< HEAD
  {c742b2dd-91c1-4c11-a243-538fe1de5a82}, !- Handle
=======
  {2b5cfc27-f299-428c-a91b-a84963a71710}, !- Handle
>>>>>>> develop
=======
  {991da047-997f-4ded-a7d1-96e189eef1c9}, !- Handle
>>>>>>> develop
  Run Period 1,                           !- Name
  1,                                      !- Begin Month
  1,                                      !- Begin Day of Month
  12,                                     !- End Month
  31,                                     !- End Day of Month
  ,                                       !- Use Weather File Holidays and Special Days
  ,                                       !- Use Weather File Daylight Saving Period
  ,                                       !- Apply Weekend Holiday Rule
  ,                                       !- Use Weather File Rain Indicators
  ,                                       !- Use Weather File Snow Indicators
  ;                                       !- Number of Times Runperiod to be Repeated

OS:YearDescription,
<<<<<<< HEAD
<<<<<<< HEAD
  {cc96c4e5-59b4-4647-8b94-ca221e7dbda7}, !- Handle
=======
  {4bb867bf-dedf-41af-bb00-014c20925ab7}, !- Handle
>>>>>>> develop
=======
  {78f61758-bee3-4f36-8b56-55c7cbb80319}, !- Handle
>>>>>>> develop
  2007,                                   !- Calendar Year
  ,                                       !- Day of Week for Start Day
  ;                                       !- Is Leap Year

OS:WeatherFile,
<<<<<<< HEAD
<<<<<<< HEAD
  {a712d5fe-ae84-4acd-955f-1ed4e213e9e3}, !- Handle
=======
  {39898cfa-5bea-42dd-b11d-ef99c57da963}, !- Handle
>>>>>>> develop
=======
  {f0153d6e-f071-48fd-a019-089075855840}, !- Handle
>>>>>>> develop
  Denver Intl Ap,                         !- City
  CO,                                     !- State Province Region
  USA,                                    !- Country
  TMY3,                                   !- Data Source
  725650,                                 !- WMO Number
  39.83,                                  !- Latitude {deg}
  -104.65,                                !- Longitude {deg}
  -7,                                     !- Time Zone {hr}
  1650,                                   !- Elevation {m}
  C:/Users/aspeake/Documents/resstock/resources/measures/HPXMLtoOpenStudio/weather/USA_CO_Denver.Intl.AP.725650_TMY3.epw, !- Url
  E23378AA;                               !- Checksum

OS:AdditionalProperties,
<<<<<<< HEAD
<<<<<<< HEAD
  {2e309080-e688-480d-93c4-6842dce99cb7}, !- Handle
  {a712d5fe-ae84-4acd-955f-1ed4e213e9e3}, !- Object Name
=======
  {f2e2325e-0aa7-4da3-8d5e-928d8497046a}, !- Handle
  {39898cfa-5bea-42dd-b11d-ef99c57da963}, !- Object Name
>>>>>>> develop
=======
  {5bec580e-111b-4283-86ad-0568bbd9e12a}, !- Handle
  {f0153d6e-f071-48fd-a019-089075855840}, !- Object Name
>>>>>>> develop
  EPWHeaderCity,                          !- Feature Name 1
  String,                                 !- Feature Data Type 1
  Denver Intl Ap,                         !- Feature Value 1
  EPWHeaderState,                         !- Feature Name 2
  String,                                 !- Feature Data Type 2
  CO,                                     !- Feature Value 2
  EPWHeaderCountry,                       !- Feature Name 3
  String,                                 !- Feature Data Type 3
  USA,                                    !- Feature Value 3
  EPWHeaderDataSource,                    !- Feature Name 4
  String,                                 !- Feature Data Type 4
  TMY3,                                   !- Feature Value 4
  EPWHeaderStation,                       !- Feature Name 5
  String,                                 !- Feature Data Type 5
  725650,                                 !- Feature Value 5
  EPWHeaderLatitude,                      !- Feature Name 6
  Double,                                 !- Feature Data Type 6
  39.829999999999998,                     !- Feature Value 6
  EPWHeaderLongitude,                     !- Feature Name 7
  Double,                                 !- Feature Data Type 7
  -104.65000000000001,                    !- Feature Value 7
  EPWHeaderTimezone,                      !- Feature Name 8
  Double,                                 !- Feature Data Type 8
  -7,                                     !- Feature Value 8
  EPWHeaderAltitude,                      !- Feature Name 9
  Double,                                 !- Feature Data Type 9
  5413.3858267716532,                     !- Feature Value 9
  EPWHeaderLocalPressure,                 !- Feature Name 10
  Double,                                 !- Feature Data Type 10
  0.81937567683596546,                    !- Feature Value 10
  EPWHeaderRecordsPerHour,                !- Feature Name 11
  Double,                                 !- Feature Data Type 11
  0,                                      !- Feature Value 11
  EPWDataAnnualAvgDrybulb,                !- Feature Name 12
  Double,                                 !- Feature Data Type 12
  51.575616438356228,                     !- Feature Value 12
  EPWDataAnnualMinDrybulb,                !- Feature Name 13
  Double,                                 !- Feature Data Type 13
  -2.9200000000000017,                    !- Feature Value 13
  EPWDataAnnualMaxDrybulb,                !- Feature Name 14
  Double,                                 !- Feature Data Type 14
  104,                                    !- Feature Value 14
  EPWDataCDD50F,                          !- Feature Name 15
  Double,                                 !- Feature Data Type 15
  3072.2925000000005,                     !- Feature Value 15
  EPWDataCDD65F,                          !- Feature Name 16
  Double,                                 !- Feature Data Type 16
  883.62000000000035,                     !- Feature Value 16
  EPWDataHDD50F,                          !- Feature Name 17
  Double,                                 !- Feature Data Type 17
  2497.1925000000001,                     !- Feature Value 17
  EPWDataHDD65F,                          !- Feature Name 18
  Double,                                 !- Feature Data Type 18
  5783.5200000000013,                     !- Feature Value 18
  EPWDataAnnualAvgWindspeed,              !- Feature Name 19
  Double,                                 !- Feature Data Type 19
  3.9165296803649667,                     !- Feature Value 19
  EPWDataMonthlyAvgDrybulbs,              !- Feature Name 20
  String,                                 !- Feature Data Type 20
  33.4191935483871&#4431.90142857142857&#4443.02620967741937&#4442.48624999999999&#4459.877741935483854&#4473.57574999999997&#4472.07975806451608&#4472.70008064516134&#4466.49200000000006&#4450.079112903225806&#4437.218250000000005&#4434.582177419354835, !- Feature Value 20
  EPWDataGroundMonthlyTemps,              !- Feature Name 21
  String,                                 !- Feature Data Type 21
  44.08306285945173&#4440.89570904991865&#4440.64045432632048&#4442.153016571250646&#4448.225111118704206&#4454.268919273837525&#4459.508577937551024&#4462.82777283423508&#4463.10975667174995&#4460.41014950381947&#4455.304105212311526&#4449.445696474514364, !- Feature Value 21
  EPWDataWSF,                             !- Feature Name 22
  Double,                                 !- Feature Data Type 22
  0.58999999999999997,                    !- Feature Value 22
  EPWDataMonthlyAvgDailyHighDrybulbs,     !- Feature Name 23
  String,                                 !- Feature Data Type 23
  47.41032258064516&#4446.58642857142857&#4455.15032258064517&#4453.708&#4472.80193548387098&#4488.67600000000002&#4486.1858064516129&#4485.87225806451613&#4482.082&#4463.18064516129033&#4448.73400000000001&#4448.87935483870968, !- Feature Value 23
  EPWDataMonthlyAvgDailyLowDrybulbs,      !- Feature Name 24
  String,                                 !- Feature Data Type 24
  19.347741935483874&#4419.856428571428573&#4430.316129032258065&#4431.112&#4447.41612903225806&#4457.901999999999994&#4459.063870967741934&#4460.956774193548384&#4452.352000000000004&#4438.41612903225806&#4427.002000000000002&#4423.02903225806451, !- Feature Value 24
  EPWDesignHeatingDrybulb,                !- Feature Name 25
  Double,                                 !- Feature Data Type 25
  12.02,                                  !- Feature Value 25
  EPWDesignHeatingWindspeed,              !- Feature Name 26
  Double,                                 !- Feature Data Type 26
  2.8062500000000004,                     !- Feature Value 26
  EPWDesignCoolingDrybulb,                !- Feature Name 27
  Double,                                 !- Feature Data Type 27
  91.939999999999998,                     !- Feature Value 27
  EPWDesignCoolingWetbulb,                !- Feature Name 28
  Double,                                 !- Feature Data Type 28
  59.95131430195849,                      !- Feature Value 28
  EPWDesignCoolingHumidityRatio,          !- Feature Name 29
  Double,                                 !- Feature Data Type 29
  0.0059161086834698092,                  !- Feature Value 29
  EPWDesignCoolingWindspeed,              !- Feature Name 30
  Double,                                 !- Feature Data Type 30
  3.7999999999999989,                     !- Feature Value 30
  EPWDesignDailyTemperatureRange,         !- Feature Name 31
  Double,                                 !- Feature Data Type 31
  24.915483870967748,                     !- Feature Value 31
  EPWDesignDehumidDrybulb,                !- Feature Name 32
  Double,                                 !- Feature Data Type 32
  67.996785714285721,                     !- Feature Value 32
  EPWDesignDehumidHumidityRatio,          !- Feature Name 33
  Double,                                 !- Feature Data Type 33
  0.012133744170488724,                   !- Feature Value 33
  EPWDesignCoolingDirectNormal,           !- Feature Name 34
  Double,                                 !- Feature Data Type 34
  985,                                    !- Feature Value 34
  EPWDesignCoolingDiffuseHorizontal,      !- Feature Name 35
  Double,                                 !- Feature Data Type 35
  84;                                     !- Feature Value 35

OS:Site,
<<<<<<< HEAD
<<<<<<< HEAD
  {bf8b64e6-abb5-4383-8123-7355b4c69b3e}, !- Handle
=======
  {5e747e37-6de2-443b-9033-bdc957909eee}, !- Handle
>>>>>>> develop
=======
  {032dca36-8e47-4a03-92d2-0b9b3383b490}, !- Handle
>>>>>>> develop
  Denver Intl Ap_CO_USA,                  !- Name
  39.83,                                  !- Latitude {deg}
  -104.65,                                !- Longitude {deg}
  -7,                                     !- Time Zone {hr}
  1650,                                   !- Elevation {m}
  Suburbs;                                !- Terrain

OS:ClimateZones,
<<<<<<< HEAD
<<<<<<< HEAD
  {d08e4911-3d75-4c1c-9079-6ea8eb82481f}, !- Handle
  ,                                       !- Active Institution
  ,                                       !- Active Year
  ,                                       !- Climate Zone Institution Name 1
=======
  {227b1387-7160-4412-b76a-d577c940c8b8}, !- Handle
=======
  {f496760b-cb6d-4aac-8bc2-678e1cdb48f7}, !- Handle
>>>>>>> develop
  Building America,                       !- Climate Zone Institution Name 1
>>>>>>> develop
  ,                                       !- Climate Zone Document Name 1
  0,                                      !- Climate Zone Document Year 1
  Cold;                                   !- Climate Zone Value 1

OS:Site:WaterMainsTemperature,
<<<<<<< HEAD
<<<<<<< HEAD
  {e80b980f-a918-42b6-bdd6-e335de7b5982}, !- Handle
=======
  {c0d4d484-d34e-4950-ac86-b658f6388d6e}, !- Handle
>>>>>>> develop
=======
  {f13f177f-8ed5-40cb-a8d2-2f1533227dfc}, !- Handle
>>>>>>> develop
  Correlation,                            !- Calculation Method
  ,                                       !- Temperature Schedule Name
  10.8753424657535,                       !- Annual Average Outdoor Air Temperature {C}
  23.1524007936508;                       !- Maximum Difference In Monthly Average Outdoor Air Temperatures {deltaC}

OS:RunPeriodControl:DaylightSavingTime,
<<<<<<< HEAD
<<<<<<< HEAD
  {b76b1b61-6c52-476c-867f-28b62d9c4696}, !- Handle
=======
  {3cc30fc0-8e10-4b6f-b361-07f49d8c87d6}, !- Handle
>>>>>>> develop
=======
  {bafee6d2-caa8-42c8-94a1-60408db5f741}, !- Handle
>>>>>>> develop
  3/12,                                   !- Start Date
  11/5;                                   !- End Date

OS:Site:GroundTemperature:Deep,
<<<<<<< HEAD
<<<<<<< HEAD
  {9b4e7142-e27d-4f55-8924-d79de2e65b05}, !- Handle
=======
  {38559bf3-5dfa-4a6a-b4e3-36b579bf5b8e}, !- Handle
>>>>>>> develop
=======
  {320fd9a3-5a29-4ee8-863a-727c66a4e4a3}, !- Handle
>>>>>>> develop
  10.8753424657535,                       !- January Deep Ground Temperature {C}
  10.8753424657535,                       !- February Deep Ground Temperature {C}
  10.8753424657535,                       !- March Deep Ground Temperature {C}
  10.8753424657535,                       !- April Deep Ground Temperature {C}
  10.8753424657535,                       !- May Deep Ground Temperature {C}
  10.8753424657535,                       !- June Deep Ground Temperature {C}
  10.8753424657535,                       !- July Deep Ground Temperature {C}
  10.8753424657535,                       !- August Deep Ground Temperature {C}
  10.8753424657535,                       !- September Deep Ground Temperature {C}
  10.8753424657535,                       !- October Deep Ground Temperature {C}
  10.8753424657535,                       !- November Deep Ground Temperature {C}
  10.8753424657535;                       !- December Deep Ground Temperature {C}

OS:Building,
<<<<<<< HEAD
<<<<<<< HEAD
  {8c5feeaa-9914-4a6c-a068-8f3ac985f3c8}, !- Handle
=======
  {d9df1946-082c-4a0a-adef-0edc7269fcbc}, !- Handle
>>>>>>> develop
=======
  {db01484e-6979-4d7d-8048-abe27b059483}, !- Handle
>>>>>>> develop
  Building 1,                             !- Name
  ,                                       !- Building Sector Type
  22.5,                                   !- North Axis {deg}
  ,                                       !- Nominal Floor to Floor Height {m}
  ,                                       !- Space Type Name
  ,                                       !- Default Construction Set Name
  ,                                       !- Default Schedule Set Name
  4,                                      !- Standards Number of Stories
  3,                                      !- Standards Number of Above Ground Stories
  ,                                       !- Standards Template
  singlefamilydetached,                   !- Standards Building Type
  1;                                      !- Standards Number of Living Units

OS:AdditionalProperties,
<<<<<<< HEAD
<<<<<<< HEAD
  {3a686772-b3f2-4857-a050-c4eb3c5d5842}, !- Handle
  {8c5feeaa-9914-4a6c-a068-8f3ac985f3c8}, !- Object Name
=======
  {62f717e8-5987-4491-9668-c6a63f9457aa}, !- Handle
  {d9df1946-082c-4a0a-adef-0edc7269fcbc}, !- Object Name
>>>>>>> develop
=======
  {63d4dff3-5159-4ca2-8bc2-6d766d40d552}, !- Handle
  {db01484e-6979-4d7d-8048-abe27b059483}, !- Object Name
>>>>>>> develop
  Total Units Modeled,                    !- Feature Name 1
  Integer,                                !- Feature Data Type 1
  1,                                      !- Feature Value 1
  has_water_heater_flue,                  !- Feature Name 2
  Boolean,                                !- Feature Data Type 2
  true,                                   !- Feature Value 2
  has_hvac_flue,                          !- Feature Name 3
  Boolean,                                !- Feature Data Type 3
  true;                                   !- Feature Value 3

OS:ThermalZone,
<<<<<<< HEAD
<<<<<<< HEAD
  {2850f14f-e68d-4972-a0d5-f847be6d1c1f}, !- Handle
=======
  {8b155cbf-1323-408b-99fd-72ebfde2eb95}, !- Handle
>>>>>>> develop
=======
  {90d9ffdd-ee2b-4f0d-aeb5-88a8ae8260a3}, !- Handle
>>>>>>> develop
  living zone,                            !- Name
  ,                                       !- Multiplier
  ,                                       !- Ceiling Height {m}
  ,                                       !- Volume {m3}
  ,                                       !- Floor Area {m2}
  ,                                       !- Zone Inside Convection Algorithm
  ,                                       !- Zone Outside Convection Algorithm
  ,                                       !- Zone Conditioning Equipment List Name
<<<<<<< HEAD
<<<<<<< HEAD
  {def37231-0f3a-409b-9b23-45b01f1e1354}, !- Zone Air Inlet Port List
  {edaec003-5e93-405a-b544-4e94935efd6c}, !- Zone Air Exhaust Port List
  {c6988424-59b9-47fc-98ec-807b0b620f19}, !- Zone Air Node Name
  {35f89026-5f0f-41de-8cf8-4cc98f56b8a0}, !- Zone Return Air Port List
=======
  {e4be903e-3f87-4b02-8ed1-31f6aca48e51}, !- Zone Air Inlet Port List
  {adbc49a5-f01d-4ce2-8d0f-3b3a9ed3e92e}, !- Zone Air Exhaust Port List
  {2b4d395d-4a59-489e-a4a5-88369d4c32ff}, !- Zone Air Node Name
  {4539ea7f-dfcc-44d3-bdc5-2471c7b7fece}, !- Zone Return Air Port List
>>>>>>> develop
=======
  {1f9aa294-66cc-44b3-b48b-f291c95cbd85}, !- Zone Air Inlet Port List
  {82b08b4d-6477-4ac3-84de-5410d896ee6c}, !- Zone Air Exhaust Port List
  {0b359d86-018f-4a88-b6bc-9ffa361e8f65}, !- Zone Air Node Name
  {581d2fbe-3722-456d-8a91-a81dd34ac5f9}, !- Zone Return Air Port List
>>>>>>> develop
  ,                                       !- Primary Daylighting Control Name
  ,                                       !- Fraction of Zone Controlled by Primary Daylighting Control
  ,                                       !- Secondary Daylighting Control Name
  ,                                       !- Fraction of Zone Controlled by Secondary Daylighting Control
  ,                                       !- Illuminance Map Name
  ,                                       !- Group Rendering Name
<<<<<<< HEAD
<<<<<<< HEAD
  {d65a1d39-c668-4b74-b1af-f50b04aba2b8}, !- Thermostat Name
  No;                                     !- Use Ideal Air Loads

OS:Node,
  {904d822a-13ea-4d52-9032-80bb2f05c492}, !- Handle
  Node 1,                                 !- Name
  {c6988424-59b9-47fc-98ec-807b0b620f19}, !- Inlet Port
  ;                                       !- Outlet Port

OS:Connection,
  {c6988424-59b9-47fc-98ec-807b0b620f19}, !- Handle
  {31c9911e-604b-4407-ae9f-7a969ea22327}, !- Name
  {2850f14f-e68d-4972-a0d5-f847be6d1c1f}, !- Source Object
  11,                                     !- Outlet Port
  {904d822a-13ea-4d52-9032-80bb2f05c492}, !- Target Object
  2;                                      !- Inlet Port

OS:PortList,
  {def37231-0f3a-409b-9b23-45b01f1e1354}, !- Handle
  {89cf8985-38c8-46b5-b4fc-d60dbe9149de}, !- Name
  {2850f14f-e68d-4972-a0d5-f847be6d1c1f}, !- HVAC Component
  {ec8852da-bbe3-49b1-ace3-a60604263a9f}, !- Port 1
  {f0bb87f9-5fe6-4532-90d5-49499bb1dbdc}; !- Port 2

OS:PortList,
  {edaec003-5e93-405a-b544-4e94935efd6c}, !- Handle
  {d4af0874-56d0-4aaf-8ebe-66d88a5cd4fe}, !- Name
  {2850f14f-e68d-4972-a0d5-f847be6d1c1f}; !- HVAC Component

OS:PortList,
  {35f89026-5f0f-41de-8cf8-4cc98f56b8a0}, !- Handle
  {2df7fc4e-df03-4015-bf4f-a80d93765c7f}, !- Name
  {2850f14f-e68d-4972-a0d5-f847be6d1c1f}, !- HVAC Component
  {2185d753-1bc7-490e-9dca-354ef950febb}, !- Port 1
  {e07fccbc-43e5-49cb-bc1a-4790876b06ef}; !- Port 2

OS:Sizing:Zone,
  {fe883571-3124-4b99-9a3e-99e8a0177736}, !- Handle
  {2850f14f-e68d-4972-a0d5-f847be6d1c1f}, !- Zone or ZoneList Name
=======
  {1f75fe8b-dd52-43cb-b938-89a8df750413}, !- Thermostat Name
=======
  {b774aa79-751e-4cf5-a3b6-46f20afc6ee8}, !- Thermostat Name
>>>>>>> develop
  No;                                     !- Use Ideal Air Loads

OS:Node,
  {a66d2dfc-ef2b-4c87-aaf5-6327a691d625}, !- Handle
  Node 1,                                 !- Name
  {0b359d86-018f-4a88-b6bc-9ffa361e8f65}, !- Inlet Port
  ;                                       !- Outlet Port

OS:Connection,
  {0b359d86-018f-4a88-b6bc-9ffa361e8f65}, !- Handle
  {90d9ffdd-ee2b-4f0d-aeb5-88a8ae8260a3}, !- Source Object
  11,                                     !- Outlet Port
  {a66d2dfc-ef2b-4c87-aaf5-6327a691d625}, !- Target Object
  2;                                      !- Inlet Port

OS:PortList,
  {1f9aa294-66cc-44b3-b48b-f291c95cbd85}, !- Handle
  {90d9ffdd-ee2b-4f0d-aeb5-88a8ae8260a3}, !- HVAC Component
  {4157706a-aa71-4c8e-b44a-dfe8fc86f0c3}, !- Port 1
  {77013dca-f963-41db-92bf-5957d31f667c}; !- Port 2

OS:PortList,
  {82b08b4d-6477-4ac3-84de-5410d896ee6c}, !- Handle
  {90d9ffdd-ee2b-4f0d-aeb5-88a8ae8260a3}; !- HVAC Component

OS:PortList,
  {581d2fbe-3722-456d-8a91-a81dd34ac5f9}, !- Handle
  {90d9ffdd-ee2b-4f0d-aeb5-88a8ae8260a3}, !- HVAC Component
  {9f0115ea-a657-4256-8216-559f5937bdc7}, !- Port 1
  {edf33a52-1347-4592-afac-9a8a332fb376}; !- Port 2

OS:Sizing:Zone,
<<<<<<< HEAD
  {e64585e3-ee0a-4290-b8c5-9d7a3a8a6c14}, !- Handle
  {8b155cbf-1323-408b-99fd-72ebfde2eb95}, !- Zone or ZoneList Name
>>>>>>> develop
=======
  {0c947004-ee42-48d2-a4b2-fac11b7d3eb1}, !- Handle
  {90d9ffdd-ee2b-4f0d-aeb5-88a8ae8260a3}, !- Zone or ZoneList Name
>>>>>>> develop
  SupplyAirTemperature,                   !- Zone Cooling Design Supply Air Temperature Input Method
  14,                                     !- Zone Cooling Design Supply Air Temperature {C}
  11.11,                                  !- Zone Cooling Design Supply Air Temperature Difference {deltaC}
  SupplyAirTemperature,                   !- Zone Heating Design Supply Air Temperature Input Method
  40,                                     !- Zone Heating Design Supply Air Temperature {C}
  11.11,                                  !- Zone Heating Design Supply Air Temperature Difference {deltaC}
  0.0085,                                 !- Zone Cooling Design Supply Air Humidity Ratio {kg-H2O/kg-air}
  0.008,                                  !- Zone Heating Design Supply Air Humidity Ratio {kg-H2O/kg-air}
  ,                                       !- Zone Heating Sizing Factor
  ,                                       !- Zone Cooling Sizing Factor
  DesignDay,                              !- Cooling Design Air Flow Method
  ,                                       !- Cooling Design Air Flow Rate {m3/s}
  ,                                       !- Cooling Minimum Air Flow per Zone Floor Area {m3/s-m2}
  ,                                       !- Cooling Minimum Air Flow {m3/s}
  ,                                       !- Cooling Minimum Air Flow Fraction
  DesignDay,                              !- Heating Design Air Flow Method
  ,                                       !- Heating Design Air Flow Rate {m3/s}
  ,                                       !- Heating Maximum Air Flow per Zone Floor Area {m3/s-m2}
  ,                                       !- Heating Maximum Air Flow {m3/s}
  ,                                       !- Heating Maximum Air Flow Fraction
  No,                                     !- Account for Dedicated Outdoor Air System
  NeutralSupplyAir,                       !- Dedicated Outdoor Air System Control Strategy
  autosize,                               !- Dedicated Outdoor Air Low Setpoint Temperature for Design {C}
  autosize;                               !- Dedicated Outdoor Air High Setpoint Temperature for Design {C}

OS:ZoneHVAC:EquipmentList,
<<<<<<< HEAD
<<<<<<< HEAD
  {e53ff8c8-a666-4755-a4ad-97af25d2a29c}, !- Handle
  Zone HVAC Equipment List 1,             !- Name
  {2850f14f-e68d-4972-a0d5-f847be6d1c1f}, !- Thermal Zone
  SequentialLoad,                         !- Load Distribution Scheme
  {e8b4fe11-b3b3-4c29-9351-f4f71e32bac9}, !- Zone Equipment 1
=======
  {8521ed68-3449-48d2-aec3-4197d0819a3e}, !- Handle
=======
  {5dcb3886-2e53-4104-8a74-6802e4686415}, !- Handle
>>>>>>> develop
  Zone HVAC Equipment List 1,             !- Name
  {90d9ffdd-ee2b-4f0d-aeb5-88a8ae8260a3}, !- Thermal Zone
  SequentialLoad,                         !- Load Distribution Scheme
<<<<<<< HEAD
  {46fd52f0-9e4f-4b15-814a-6db77c7f7974}, !- Zone Equipment 1
>>>>>>> develop
=======
  {76fee980-b450-4765-8d40-c3a1cd23c005}, !- Zone Equipment 1
>>>>>>> develop
  1,                                      !- Zone Equipment Cooling Sequence 1
  1,                                      !- Zone Equipment Heating or No-Load Sequence 1
  ,                                       !- Zone Equipment Sequential Cooling Fraction Schedule Name 1
  ,                                       !- Zone Equipment Sequential Heating Fraction Schedule Name 1
<<<<<<< HEAD
<<<<<<< HEAD
  {8bdda50b-b758-4e47-a32f-9eecbb4f5120}, !- Zone Equipment 2
=======
  {cc801d17-1a90-4b6e-8de6-9d64c2212865}, !- Zone Equipment 2
>>>>>>> develop
=======
  {658a732b-80c1-4667-b445-5de83ef6b18f}, !- Zone Equipment 2
>>>>>>> develop
  2,                                      !- Zone Equipment Cooling Sequence 2
  2,                                      !- Zone Equipment Heating or No-Load Sequence 2
  ,                                       !- Zone Equipment Sequential Cooling Fraction Schedule Name 2
  ;                                       !- Zone Equipment Sequential Heating Fraction Schedule Name 2

OS:ThermalZone,
<<<<<<< HEAD
<<<<<<< HEAD
  {6624118d-e522-4be9-a07c-1ebdc566da0d}, !- Handle
=======
  {f123e4eb-ddb9-468a-809b-3632ae6f1d83}, !- Handle
>>>>>>> develop
=======
  {d4eb2935-15f4-4d23-a830-0ed0c61a2729}, !- Handle
>>>>>>> develop
  garage zone,                            !- Name
  ,                                       !- Multiplier
  ,                                       !- Ceiling Height {m}
  ,                                       !- Volume {m3}
  ,                                       !- Floor Area {m2}
  ,                                       !- Zone Inside Convection Algorithm
  ,                                       !- Zone Outside Convection Algorithm
  ,                                       !- Zone Conditioning Equipment List Name
<<<<<<< HEAD
<<<<<<< HEAD
  {9643e6f6-3098-49c4-97cc-0d0b92dcf612}, !- Zone Air Inlet Port List
  {bd9d3f0d-6d02-432f-939e-a238550d439c}, !- Zone Air Exhaust Port List
  {295af69b-6473-4b55-94bc-cb021ee5e00d}, !- Zone Air Node Name