!- NOTE: Auto-generated from /test/osw_files/SFD_1story_UB_UA_ASHP2_HPWH.osw

OS:Version,
  {badc20f0-e6ed-41b7-95ba-7e1af855ea8f}, !- Handle
  2.9.0;                                  !- Version Identifier

OS:SimulationControl,
  {572e2be5-9648-40e9-bd8e-43ee43106613}, !- Handle
  ,                                       !- Do Zone Sizing Calculation
  ,                                       !- Do System Sizing Calculation
  ,                                       !- Do Plant Sizing Calculation
  No;                                     !- Run Simulation for Sizing Periods

OS:Timestep,
  {fb6ab220-d1f7-4989-969f-35de8741e3b5}, !- Handle
  6;                                      !- Number of Timesteps per Hour

OS:ShadowCalculation,
  {8f0862af-6267-40fd-8f60-277936e8f4f8}, !- Handle
  20,                                     !- Calculation Frequency
  200;                                    !- Maximum Figures in Shadow Overlap Calculations

OS:SurfaceConvectionAlgorithm:Outside,
  {a13b7306-7906-4131-9a6e-d25b6db24214}, !- Handle
  DOE-2;                                  !- Algorithm

OS:SurfaceConvectionAlgorithm:Inside,
  {58ce2dea-040a-4c13-b087-eb9652e9b4eb}, !- Handle
  TARP;                                   !- Algorithm

OS:ZoneCapacitanceMultiplier:ResearchSpecial,
  {6a3a08eb-33fd-4d13-b9e5-71385b2db13a}, !- Handle
  ,                                       !- Temperature Capacity Multiplier
  15,                                     !- Humidity Capacity Multiplier
  ;                                       !- Carbon Dioxide Capacity Multiplier

OS:RunPeriod,
  {02889891-8739-413a-a084-9d9c5c2b4e77}, !- Handle
  Run Period 1,                           !- Name
  1,                                      !- Begin Month
  1,                                      !- Begin Day of Month
  12,                                     !- End Month
  31,                                     !- End Day of Month
  ,                                       !- Use Weather File Holidays and Special Days
  ,                                       !- Use Weather File Daylight Saving Period
  ,                                       !- Apply Weekend Holiday Rule
  ,                                       !- Use Weather File Rain Indicators
  ,                                       !- Use Weather File Snow Indicators
  ;                                       !- Number of Times Runperiod to be Repeated

OS:YearDescription,
  {38350654-d90d-45e0-a6c9-b9424837a319}, !- Handle
  2007,                                   !- Calendar Year
  ,                                       !- Day of Week for Start Day
  ;                                       !- Is Leap Year

OS:WeatherFile,
  {324d284f-f4e2-4397-be78-5f59e6b04f15}, !- Handle
  Denver Intl Ap,                         !- City
  CO,                                     !- State Province Region
  USA,                                    !- Country
  TMY3,                                   !- Data Source
  725650,                                 !- WMO Number
  39.83,                                  !- Latitude {deg}
  -104.65,                                !- Longitude {deg}
  -7,                                     !- Time Zone {hr}
  1650,                                   !- Elevation {m}
  file:../weather/USA_CO_Denver.Intl.AP.725650_TMY3.epw, !- Url
  E23378AA;                               !- Checksum

OS:AdditionalProperties,
  {12a1071a-f9d2-4b59-b4ee-41487a496ac0}, !- Handle
  {324d284f-f4e2-4397-be78-5f59e6b04f15}, !- Object Name
  EPWHeaderCity,                          !- Feature Name 1
  String,                                 !- Feature Data Type 1
  Denver Intl Ap,                         !- Feature Value 1
  EPWHeaderState,                         !- Feature Name 2
  String,                                 !- Feature Data Type 2
  CO,                                     !- Feature Value 2
  EPWHeaderCountry,                       !- Feature Name 3
  String,                                 !- Feature Data Type 3
  USA,                                    !- Feature Value 3
  EPWHeaderDataSource,                    !- Feature Name 4
  String,                                 !- Feature Data Type 4
  TMY3,                                   !- Feature Value 4
  EPWHeaderStation,                       !- Feature Name 5
  String,                                 !- Feature Data Type 5
  725650,                                 !- Feature Value 5
  EPWHeaderLatitude,                      !- Feature Name 6
  Double,                                 !- Feature Data Type 6
  39.829999999999998,                     !- Feature Value 6
  EPWHeaderLongitude,                     !- Feature Name 7
  Double,                                 !- Feature Data Type 7
  -104.65000000000001,                    !- Feature Value 7
  EPWHeaderTimezone,                      !- Feature Name 8
  Double,                                 !- Feature Data Type 8
  -7,                                     !- Feature Value 8
  EPWHeaderAltitude,                      !- Feature Name 9
  Double,                                 !- Feature Data Type 9
  5413.3858267716532,                     !- Feature Value 9
  EPWHeaderLocalPressure,                 !- Feature Name 10
  Double,                                 !- Feature Data Type 10
  0.81937567683596546,                    !- Feature Value 10
  EPWHeaderRecordsPerHour,                !- Feature Name 11
  Double,                                 !- Feature Data Type 11
  0,                                      !- Feature Value 11
  EPWDataAnnualAvgDrybulb,                !- Feature Name 12
  Double,                                 !- Feature Data Type 12
  51.575616438356228,                     !- Feature Value 12
  EPWDataAnnualMinDrybulb,                !- Feature Name 13
  Double,                                 !- Feature Data Type 13
  -2.9200000000000017,                    !- Feature Value 13
  EPWDataAnnualMaxDrybulb,                !- Feature Name 14
  Double,                                 !- Feature Data Type 14
  104,                                    !- Feature Value 14
  EPWDataCDD50F,                          !- Feature Name 15
  Double,                                 !- Feature Data Type 15
  3072.2925000000005,                     !- Feature Value 15
  EPWDataCDD65F,                          !- Feature Name 16
  Double,                                 !- Feature Data Type 16
  883.62000000000035,                     !- Feature Value 16
  EPWDataHDD50F,                          !- Feature Name 17
  Double,                                 !- Feature Data Type 17
  2497.1925000000001,                     !- Feature Value 17
  EPWDataHDD65F,                          !- Feature Name 18
  Double,                                 !- Feature Data Type 18
  5783.5200000000013,                     !- Feature Value 18
  EPWDataAnnualAvgWindspeed,              !- Feature Name 19
  Double,                                 !- Feature Data Type 19
  3.9165296803649667,                     !- Feature Value 19
  EPWDataMonthlyAvgDrybulbs,              !- Feature Name 20
  String,                                 !- Feature Data Type 20
  33.4191935483871&#4431.90142857142857&#4443.02620967741937&#4442.48624999999999&#4459.877741935483854&#4473.57574999999997&#4472.07975806451608&#4472.70008064516134&#4466.49200000000006&#4450.079112903225806&#4437.218250000000005&#4434.582177419354835, !- Feature Value 20
  EPWDataGroundMonthlyTemps,              !- Feature Name 21
  String,                                 !- Feature Data Type 21
  44.08306285945173&#4440.89570904991865&#4440.64045432632048&#4442.153016571250646&#4448.225111118704206&#4454.268919273837525&#4459.508577937551024&#4462.82777283423508&#4463.10975667174995&#4460.41014950381947&#4455.304105212311526&#4449.445696474514364, !- Feature Value 21
  EPWDataWSF,                             !- Feature Name 22
  Double,                                 !- Feature Data Type 22
  0.58999999999999997,                    !- Feature Value 22
  EPWDataMonthlyAvgDailyHighDrybulbs,     !- Feature Name 23
  String,                                 !- Feature Data Type 23
  47.41032258064516&#4446.58642857142857&#4455.15032258064517&#4453.708&#4472.80193548387098&#4488.67600000000002&#4486.1858064516129&#4485.87225806451613&#4482.082&#4463.18064516129033&#4448.73400000000001&#4448.87935483870968, !- Feature Value 23
  EPWDataMonthlyAvgDailyLowDrybulbs,      !- Feature Name 24
  String,                                 !- Feature Data Type 24
  19.347741935483874&#4419.856428571428573&#4430.316129032258065&#4431.112&#4447.41612903225806&#4457.901999999999994&#4459.063870967741934&#4460.956774193548384&#4452.352000000000004&#4438.41612903225806&#4427.002000000000002&#4423.02903225806451, !- Feature Value 24
  EPWDesignHeatingDrybulb,                !- Feature Name 25
  Double,                                 !- Feature Data Type 25
  12.02,                                  !- Feature Value 25
  EPWDesignHeatingWindspeed,              !- Feature Name 26
  Double,                                 !- Feature Data Type 26
  2.8062500000000004,                     !- Feature Value 26
  EPWDesignCoolingDrybulb,                !- Feature Name 27
  Double,                                 !- Feature Data Type 27
  91.939999999999998,                     !- Feature Value 27
  EPWDesignCoolingWetbulb,                !- Feature Name 28
  Double,                                 !- Feature Data Type 28
  59.95131430195849,                      !- Feature Value 28
  EPWDesignCoolingHumidityRatio,          !- Feature Name 29
  Double,                                 !- Feature Data Type 29
  0.0059161086834698092,                  !- Feature Value 29
  EPWDesignCoolingWindspeed,              !- Feature Name 30
  Double,                                 !- Feature Data Type 30
  3.7999999999999989,                     !- Feature Value 30
  EPWDesignDailyTemperatureRange,         !- Feature Name 31
  Double,                                 !- Feature Data Type 31
  24.915483870967748,                     !- Feature Value 31
  EPWDesignDehumidDrybulb,                !- Feature Name 32
  Double,                                 !- Feature Data Type 32
  67.996785714285721,                     !- Feature Value 32
  EPWDesignDehumidHumidityRatio,          !- Feature Name 33
  Double,                                 !- Feature Data Type 33
  0.012133744170488724,                   !- Feature Value 33
  EPWDesignCoolingDirectNormal,           !- Feature Name 34
  Double,                                 !- Feature Data Type 34
  985,                                    !- Feature Value 34
  EPWDesignCoolingDiffuseHorizontal,      !- Feature Name 35
  Double,                                 !- Feature Data Type 35
  84;                                     !- Feature Value 35

OS:Site,
  {200b5303-d0c0-409b-b809-f2ffe4e37e61}, !- Handle
  Denver Intl Ap_CO_USA,                  !- Name
  39.83,                                  !- Latitude {deg}
  -104.65,                                !- Longitude {deg}
  -7,                                     !- Time Zone {hr}
  1650,                                   !- Elevation {m}
  Suburbs;                                !- Terrain

OS:ClimateZones,
  {6f82f0de-3360-495d-81e5-010b0d129c9c}, !- Handle
  ,                                       !- Active Institution
  ,                                       !- Active Year
  ,                                       !- Climate Zone Institution Name 1
  ,                                       !- Climate Zone Document Name 1
  ,                                       !- Climate Zone Document Year 1
  ,                                       !- Climate Zone Value 1
  Building America,                       !- Climate Zone Institution Name 2
  ,                                       !- Climate Zone Document Name 2
  0,                                      !- Climate Zone Document Year 2
  Cold;                                   !- Climate Zone Value 2

OS:Site:WaterMainsTemperature,
  {2f9ee2f1-515e-4e96-a3f6-71de6b9900a3}, !- Handle
  Correlation,                            !- Calculation Method
  ,                                       !- Temperature Schedule Name
  10.8753424657535,                       !- Annual Average Outdoor Air Temperature {C}
  23.1524007936508;                       !- Maximum Difference In Monthly Average Outdoor Air Temperatures {deltaC}

OS:RunPeriodControl:DaylightSavingTime,
  {155466cd-4194-4ff7-b42b-c4303ac241a3}, !- Handle
  4/7,                                    !- Start Date
  10/26;                                  !- End Date

OS:Site:GroundTemperature:Deep,
  {fdead8de-6fe8-43fe-9811-1e27b596c72c}, !- Handle
  10.8753424657535,                       !- January Deep Ground Temperature {C}
  10.8753424657535,                       !- February Deep Ground Temperature {C}
  10.8753424657535,                       !- March Deep Ground Temperature {C}
  10.8753424657535,                       !- April Deep Ground Temperature {C}
  10.8753424657535,                       !- May Deep Ground Temperature {C}
  10.8753424657535,                       !- June Deep Ground Temperature {C}
  10.8753424657535,                       !- July Deep Ground Temperature {C}
  10.8753424657535,                       !- August Deep Ground Temperature {C}
  10.8753424657535,                       !- September Deep Ground Temperature {C}
  10.8753424657535,                       !- October Deep Ground Temperature {C}
  10.8753424657535,                       !- November Deep Ground Temperature {C}
  10.8753424657535;                       !- December Deep Ground Temperature {C}

OS:ThermalZone,
  {a8edb764-7046-49ea-8bdc-5bd84af3b20a}, !- Handle
  living zone,                            !- Name
  ,                                       !- Multiplier
  ,                                       !- Ceiling Height {m}
  ,                                       !- Volume {m3}
  ,                                       !- Floor Area {m2}
  ,                                       !- Zone Inside Convection Algorithm
  ,                                       !- Zone Outside Convection Algorithm
  ,                                       !- Zone Conditioning Equipment List Name
  {09b1c851-449b-4465-82ba-28491831e64c}, !- Zone Air Inlet Port List
  {4a08bc64-6001-42e2-bcdd-57941ec3d3f6}, !- Zone Air Exhaust Port List
  {03aa84fe-058e-4396-b7b6-cfa986216f91}, !- Zone Air Node Name
  {e6ab302c-cb5c-463a-9189-f5524ad08579}, !- Zone Return Air Port List
  ,                                       !- Primary Daylighting Control Name
  ,                                       !- Fraction of Zone Controlled by Primary Daylighting Control
  ,                                       !- Secondary Daylighting Control Name
  ,                                       !- Fraction of Zone Controlled by Secondary Daylighting Control
  ,                                       !- Illuminance Map Name
  ,                                       !- Group Rendering Name
  {64a86ac7-2aa7-4c35-9c19-75426ee187ec}, !- Thermostat Name
  No;                                     !- Use Ideal Air Loads

OS:Node,
  {60deb828-b318-4ae9-a54e-d6823b00e952}, !- Handle
  Node 1,                                 !- Name
  {03aa84fe-058e-4396-b7b6-cfa986216f91}, !- Inlet Port
  ;                                       !- Outlet Port

OS:Connection,
  {03aa84fe-058e-4396-b7b6-cfa986216f91}, !- Handle
  {174bdb5b-7a8a-40f3-9fb7-7665e2745320}, !- Name
  {a8edb764-7046-49ea-8bdc-5bd84af3b20a}, !- Source Object
  11,                                     !- Outlet Port
  {60deb828-b318-4ae9-a54e-d6823b00e952}, !- Target Object
  2;                                      !- Inlet Port

OS:PortList,
  {09b1c851-449b-4465-82ba-28491831e64c}, !- Handle
  {2561c986-31e9-456d-b847-63b9991d4a45}, !- Name
  {a8edb764-7046-49ea-8bdc-5bd84af3b20a}, !- HVAC Component
  {ac3fed98-c814-4ff4-865d-3cab0e226667}, !- Port 1
  {b9ae14fd-2e43-4e3b-b3db-388576b19ca3}; !- Port 2

OS:PortList,
  {4a08bc64-6001-42e2-bcdd-57941ec3d3f6}, !- Handle
  {c84e56f6-9478-46a7-8379-ae03b6c5fcb1}, !- Name
  {a8edb764-7046-49ea-8bdc-5bd84af3b20a}; !- HVAC Component

OS:PortList,
  {e6ab302c-cb5c-463a-9189-f5524ad08579}, !- Handle
  {7e8b874d-d4b3-4929-8996-37cc22e20953}, !- Name
  {a8edb764-7046-49ea-8bdc-5bd84af3b20a}, !- HVAC Component
  {39e36853-9d5f-40ed-a4a2-15bcf6e3f2e4}, !- Port 1
  {29c40319-5898-4a2a-8882-f4a8b9090312}; !- Port 2

OS:Sizing:Zone,
  {34fa57ec-5b1e-43ae-8d14-196534b60247}, !- Handle
  {a8edb764-7046-49ea-8bdc-5bd84af3b20a}, !- Zone or ZoneList Name
  SupplyAirTemperature,                   !- Zone Cooling Design Supply Air Temperature Input Method
  14,                                     !- Zone Cooling Design Supply Air Temperature {C}
  11.11,                                  !- Zone Cooling Design Supply Air Temperature Difference {deltaC}
  SupplyAirTemperature,                   !- Zone Heating Design Supply Air Temperature Input Method
  40,                                     !- Zone Heating Design Supply Air Temperature {C}
  11.11,                                  !- Zone Heating Design Supply Air Temperature Difference {deltaC}
  0.0085,                                 !- Zone Cooling Design Supply Air Humidity Ratio {kg-H2O/kg-air}
  0.008,                                  !- Zone Heating Design Supply Air Humidity Ratio {kg-H2O/kg-air}
  ,                                       !- Zone Heating Sizing Factor
  ,                                       !- Zone Cooling Sizing Factor
  DesignDay,                              !- Cooling Design Air Flow Method
  ,                                       !- Cooling Design Air Flow Rate {m3/s}
  ,                                       !- Cooling Minimum Air Flow per Zone Floor Area {m3/s-m2}
  ,                                       !- Cooling Minimum Air Flow {m3/s}
  ,                                       !- Cooling Minimum Air Flow Fraction
  DesignDay,                              !- Heating Design Air Flow Method
  ,                                       !- Heating Design Air Flow Rate {m3/s}
  ,                                       !- Heating Maximum Air Flow per Zone Floor Area {m3/s-m2}
  ,                                       !- Heating Maximum Air Flow {m3/s}
  ,                                       !- Heating Maximum Air Flow Fraction
  ,                                       !- Design Zone Air Distribution Effectiveness in Cooling Mode
  ,                                       !- Design Zone Air Distribution Effectiveness in Heating Mode
  No,                                     !- Account for Dedicated Outdoor Air System
  NeutralSupplyAir,                       !- Dedicated Outdoor Air System Control Strategy
  autosize,                               !- Dedicated Outdoor Air Low Setpoint Temperature for Design {C}
  autosize;                               !- Dedicated Outdoor Air High Setpoint Temperature for Design {C}

OS:ZoneHVAC:EquipmentList,
  {e1e999f7-61a9-4960-abb6-f53631829436}, !- Handle
  Zone HVAC Equipment List 1,             !- Name
  {a8edb764-7046-49ea-8bdc-5bd84af3b20a}, !- Thermal Zone
  SequentialLoad,                         !- Load Distribution Scheme
  {7c197597-80b3-4b0b-ace6-7ab437c56d79}, !- Zone Equipment 1
  1,                                      !- Zone Equipment Cooling Sequence 1
  1,                                      !- Zone Equipment Heating or No-Load Sequence 1
  ,                                       !- Zone Equipment Sequential Cooling Fraction Schedule Name 1
  ,                                       !- Zone Equipment Sequential Heating Fraction Schedule Name 1
  {6d3c3daa-9d40-468c-97a7-75148d2fe464}, !- Zone Equipment 2
  2,                                      !- Zone Equipment Cooling Sequence 2
  2,                                      !- Zone Equipment Heating or No-Load Sequence 2
  ,                                       !- Zone Equipment Sequential Cooling Fraction Schedule Name 2
  ;                                       !- Zone Equipment Sequential Heating Fraction Schedule Name 2

OS:Space,
  {e0a4ac3f-b295-492d-990f-d2d01166b216}, !- Handle
  living space,                           !- Name
  {a377811f-7527-444f-b6a5-7da1b66cae2a}, !- Space Type Name
  ,                                       !- Default Construction Set Name
  ,                                       !- Default Schedule Set Name
  -0,                                     !- Direction of Relative North {deg}
  0,                                      !- X Origin {m}
  0,                                      !- Y Origin {m}
  0,                                      !- Z Origin {m}
  ,                                       !- Building Story Name
  {a8edb764-7046-49ea-8bdc-5bd84af3b20a}, !- Thermal Zone Name
  ,                                       !- Part of Total Floor Area
  ,                                       !- Design Specification Outdoor Air Object Name
  {91a10c2b-210b-40f3-9aa4-05d9343f5097}; !- Building Unit Name

OS:Surface,
  {5f089e8d-134b-4af4-89c6-42fd9e34bf8d}, !- Handle
  Surface 1,                              !- Name
  Floor,                                  !- Surface Type
  {7ad9b359-f738-46bc-b480-21b24320255d}, !- Construction Name
  {e0a4ac3f-b295-492d-990f-d2d01166b216}, !- Space Name
  Surface,                                !- Outside Boundary Condition
  {383afeb5-bb0f-48a8-b336-69d337d00c18}, !- Outside Boundary Condition Object
  NoSun,                                  !- Sun Exposure
  NoWind,                                 !- Wind Exposure
  ,                                       !- View Factor to Ground
  ,                                       !- Number of Vertices
  0, 0, 0,                                !- X,Y,Z Vertex 1 {m}
  0, 12.4434078933385, 0,                 !- X,Y,Z Vertex 2 {m}
  22.3981342080094, 12.4434078933385, 0,  !- X,Y,Z Vertex 3 {m}
  22.3981342080094, 0, 0;                 !- X,Y,Z Vertex 4 {m}

OS:Surface,
  {7d38454c-a3d2-4a3c-9db0-e374febff44f}, !- Handle
  Surface 2,                              !- Name
  Wall,                                   !- Surface Type
  {304df339-1df5-48e8-8a68-d24707c1a771}, !- Construction Name
  {e0a4ac3f-b295-492d-990f-d2d01166b216}, !- Space Name
  Outdoors,                               !- Outside Boundary Condition
  ,                                       !- Outside Boundary Condition Object
  SunExposed,                             !- Sun Exposure
  WindExposed,                            !- Wind Exposure
  ,                                       !- View Factor to Ground
  ,                                       !- Number of Vertices
  0, 12.4434078933385, 2.4384,            !- X,Y,Z Vertex 1 {m}
  0, 12.4434078933385, 0,                 !- X,Y,Z Vertex 2 {m}
  0, 0, 0,                                !- X,Y,Z Vertex 3 {m}
  0, 0, 2.4384;                           !- X,Y,Z Vertex 4 {m}

OS:Surface,
  {89fd5b96-8abc-47ef-8de8-1d51faf9872b}, !- Handle
  Surface 3,                              !- Name
  Wall,                                   !- Surface Type
  {304df339-1df5-48e8-8a68-d24707c1a771}, !- Construction Name
  {e0a4ac3f-b295-492d-990f-d2d01166b216}, !- Space Name
  Outdoors,                               !- Outside Boundary Condition
  ,                                       !- Outside Boundary Condition Object
  SunExposed,                             !- Sun Exposure
  WindExposed,                            !- Wind Exposure
  ,                                       !- View Factor to Ground
  ,                                       !- Number of Vertices
  22.3981342080094, 12.4434078933385, 2.4384, !- X,Y,Z Vertex 1 {m}
  22.3981342080094, 12.4434078933385, 0,  !- X,Y,Z Vertex 2 {m}
  0, 12.4434078933385, 0,                 !- X,Y,Z Vertex 3 {m}
  0, 12.4434078933385, 2.4384;            !- X,Y,Z Vertex 4 {m}

OS:Surface,
  {a8060691-efe8-477e-bb06-8c02796ced56}, !- Handle
  Surface 4,                              !- Name
  Wall,                                   !- Surface Type
  {304df339-1df5-48e8-8a68-d24707c1a771}, !- Construction Name
  {e0a4ac3f-b295-492d-990f-d2d01166b216}, !- Space Name
  Outdoors,                               !- Outside Boundary Condition
  ,                                       !- Outside Boundary Condition Object
  SunExposed,                             !- Sun Exposure
  WindExposed,                            !- Wind Exposure
  ,                                       !- View Factor to Ground
  ,                                       !- Number of Vertices
  22.3981342080094, 0, 2.4384,            !- X,Y,Z Vertex 1 {m}
  22.3981342080094, 0, 0,                 !- X,Y,Z Vertex 2 {m}
  22.3981342080094, 12.4434078933385, 0,  !- X,Y,Z Vertex 3 {m}
  22.3981342080094, 12.4434078933385, 2.4384; !- X,Y,Z Vertex 4 {m}

OS:Surface,
  {c099a004-7c2c-42cf-94da-3fea18a538eb}, !- Handle
  Surface 5,                              !- Name
  Wall,                                   !- Surface Type
  {304df339-1df5-48e8-8a68-d24707c1a771}, !- Construction Name
  {e0a4ac3f-b295-492d-990f-d2d01166b216}, !- Space Name
  Outdoors,                               !- Outside Boundary Condition
  ,                                       !- Outside Boundary Condition Object
  SunExposed,                             !- Sun Exposure
  WindExposed,                            !- Wind Exposure
  ,                                       !- View Factor to Ground
  ,                                       !- Number of Vertices
  22.3981342080094, 0, 0,                 !- X,Y,Z Vertex 1 {m}
  22.3981342080094, 0, 2.4384,            !- X,Y,Z Vertex 2 {m}
  1.91951428571429, 0, 2.4384,            !- X,Y,Z Vertex 3 {m}
  1.91951428571429, 0, 0;                 !- X,Y,Z Vertex 4 {m}

OS:Surface,
  {6a0e4a15-52ad-413d-8927-6b72811a4ce4}, !- Handle
  Surface 6,                              !- Name
  RoofCeiling,                            !- Surface Type
  {6b8e075e-9740-4bd8-bfdf-089f5005d9c6}, !- Construction Name
  {e0a4ac3f-b295-492d-990f-d2d01166b216}, !- Space Name
  Surface,                                !- Outside Boundary Condition
  {b4cdd5fe-dc8e-43df-86ea-d635931a5416}, !- Outside Boundary Condition Object
  NoSun,                                  !- Sun Exposure
  NoWind,                                 !- Wind Exposure
  ,                                       !- View Factor to Ground
  ,                                       !- Number of Vertices
  22.3981342080094, 0, 2.4384,            !- X,Y,Z Vertex 1 {m}
  22.3981342080094, 12.4434078933385, 2.4384, !- X,Y,Z Vertex 2 {m}
  0, 12.4434078933385, 2.4384,            !- X,Y,Z Vertex 3 {m}
  0, 0, 2.4384;                           !- X,Y,Z Vertex 4 {m}

OS:SpaceType,
  {a377811f-7527-444f-b6a5-7da1b66cae2a}, !- Handle
  Space Type 1,                           !- Name
  ,                                       !- Default Construction Set Name
  ,                                       !- Default Schedule Set Name
  ,                                       !- Group Rendering Name
  ,                                       !- Design Specification Outdoor Air Object Name
  ,                                       !- Standards Template
  ,                                       !- Standards Building Type
  living;                                 !- Standards Space Type

OS:Surface,
  {b4cdd5fe-dc8e-43df-86ea-d635931a5416}, !- Handle
  Surface 7,                              !- Name
  Floor,                                  !- Surface Type
  {b63d9653-0f11-45ee-a40a-07570b8c8bf3}, !- Construction Name
  {e8e78fb3-c9f3-4afd-8740-e6ff1024b6af}, !- Space Name
  Surface,                                !- Outside Boundary Condition
  {6a0e4a15-52ad-413d-8927-6b72811a4ce4}, !- Outside Boundary Condition Object
  NoSun,                                  !- Sun Exposure
  NoWind,                                 !- Wind Exposure
  ,                                       !- View Factor to Ground
  ,                                       !- Number of Vertices
  0, 12.4434078933385, 0,                 !- X,Y,Z Vertex 1 {m}
  22.3981342080094, 12.4434078933385, 0,  !- X,Y,Z Vertex 2 {m}
  22.3981342080094, 0, 0,                 !- X,Y,Z Vertex 3 {m}
  0, 0, 0;                                !- X,Y,Z Vertex 4 {m}

OS:Surface,
  {29e31dce-345f-4fab-8663-3233a02184f6}, !- Handle
  Surface 8,                              !- Name
  RoofCeiling,                            !- Surface Type
  {6ff7a4dd-11fc-4c0f-82ec-e59c22cb66ac}, !- Construction Name
  {e8e78fb3-c9f3-4afd-8740-e6ff1024b6af}, !- Space Name
  Outdoors,                               !- Outside Boundary Condition
  ,                                       !- Outside Boundary Condition Object
  SunExposed,                             !- Sun Exposure
  WindExposed,                            !- Wind Exposure
  ,                                       !- View Factor to Ground
  ,                                       !- Number of Vertices
  22.3981342080094, 6.22170394666927, 3.41565197333464, !- X,Y,Z Vertex 1 {m}
  0, 6.22170394666927, 3.41565197333464,  !- X,Y,Z Vertex 2 {m}
  0, 0, 0.304800000000001,                !- X,Y,Z Vertex 3 {m}
  22.3981342080094, 0, 0.304800000000001; !- X,Y,Z Vertex 4 {m}

OS:Surface,
  {3e6bebde-50ef-4436-ab6f-62dd99cd1bce}, !- Handle
  Surface 9,                              !- Name
  RoofCeiling,                            !- Surface Type
  {6ff7a4dd-11fc-4c0f-82ec-e59c22cb66ac}, !- Construction Name
  {e8e78fb3-c9f3-4afd-8740-e6ff1024b6af}, !- Space Name
  Outdoors,                               !- Outside Boundary Condition
  ,                                       !- Outside Boundary Condition Object
  SunExposed,                             !- Sun Exposure
  WindExposed,                            !- Wind Exposure