!- NOTE: Auto-generated from /test/osw_files/SFD_2000sqft_2story_FB_GRG_UA_3Beds_2Baths_Denver_WHTank_HWFixtures_RecircDist.osw

OS:Version,
  {3edca550-8568-457b-a520-f0601ea351ef}, !- Handle
  2.8.0;                                  !- Version Identifier

OS:Building,
  {3f8980ac-b1f2-4cc9-9467-0fac375c0f3d}, !- Handle
  Building 1,                             !- Name
  ,                                       !- Building Sector Type
  0,                                      !- North Axis {deg}
  ,                                       !- Nominal Floor to Floor Height {m}
  ,                                       !- Space Type Name
  ,                                       !- Default Construction Set Name
  ,                                       !- Default Schedule Set Name
  3,                                      !- Standards Number of Stories
  2,                                      !- Standards Number of Above Ground Stories
  ,                                       !- Standards Template
  singlefamilydetached,                   !- Standards Building Type
  1;                                      !- Standards Number of Living Units

OS:Facility,
  {8e8135ae-5e56-4a24-9c0f-5711d10ab958}; !- Handle

OS:Site,
  {13e6c7b0-9251-49d5-8305-3d311ccd334b}, !- Handle
  Denver Intl Ap_CO_USA,                  !- Name
  39.83,                                  !- Latitude {deg}
  -104.65,                                !- Longitude {deg}
  -7,                                     !- Time Zone {hr}
  1650,                                   !- Elevation {m}
  ;                                       !- Terrain

OS:SimulationControl,
  {febbebbb-3d56-4d3c-aec1-4e56c7b3c1dd}, !- Handle
  ,                                       !- Do Zone Sizing Calculation
  ,                                       !- Do System Sizing Calculation
  ,                                       !- Do Plant Sizing Calculation
  No;                                     !- Run Simulation for Sizing Periods

OS:Sizing:Parameters,
  {60af82b8-30e9-49ce-89db-83b53e185458}, !- Handle
  1.25,                                   !- Heating Sizing Factor
  1.15;                                   !- Cooling Sizing Factor

OS:Timestep,
  {a6b71570-3f9e-4508-ab37-93b082c37870}, !- Handle
  6;                                      !- Number of Timesteps per Hour

OS:ShadowCalculation,
  {d6964e31-f9f7-485a-a6bd-4281d820922c}, !- Handle
  20,                                     !- Calculation Frequency
  200;                                    !- Maximum Figures in Shadow Overlap Calculations

OS:HeatBalanceAlgorithm,
  {61a0d437-48f3-46b8-9c87-7634d4979a3b}, !- Handle
  ConductionTransferFunction,             !- Algorithm
  200;                                    !- Surface Temperature Upper Limit {C}

OS:RunPeriod,
  {a7bbbbf4-d84f-4a2d-b1a3-f8a311b8ee67}, !- Handle
  Run Period 1,                           !- Name
  1,                                      !- Begin Month
  1,                                      !- Begin Day of Month
  12,                                     !- End Month
  31,                                     !- End Day of Month
  ,                                       !- Use Weather File Holidays and Special Days
  ,                                       !- Use Weather File Daylight Saving Period
  ,                                       !- Apply Weekend Holiday Rule
  ,                                       !- Use Weather File Rain Indicators
  ,                                       !- Use Weather File Snow Indicators
  ;                                       !- Number of Times Runperiod to be Repeated

OS:LifeCycleCost:Parameters,
  {de1d5f35-8cde-4ba8-ab69-4577d13ba8ed}, !- Handle
  ,                                       !- Analysis Type
  ,                                       !- Discounting Convention
  ,                                       !- Inflation Approach
  ,                                       !- Real Discount Rate
  ,                                       !- Nominal Discount Rate
  ,                                       !- Inflation
  ,                                       !- Base Date Month
  ,                                       !- Base Date Year
  ,                                       !- Service Date Month
  ,                                       !- Service Date Year
  ;                                       !- Length of Study Period in Years

OS:SurfaceConvectionAlgorithm:Outside,
  {4c07aa69-a284-4367-9318-cce4cf622916}, !- Handle
  DOE-2;                                  !- Algorithm

OS:SurfaceConvectionAlgorithm:Inside,
  {1b0c3080-737b-4c3b-ba45-9a65e97e5e92}, !- Handle
  TARP;                                   !- Algorithm

OS:ZoneCapacitanceMultiplier:ResearchSpecial,
  {3b3e53b3-603b-4f43-a28a-3d4b2c8c5e69}, !- Handle
  ,                                       !- Temperature Capacity Multiplier
  15,                                     !- Humidity Capacity Multiplier
  ;                                       !- Carbon Dioxide Capacity Multiplier

OS:ThermalZone,
  {45360e32-9670-452c-aa86-5a730e4542a0}, !- Handle
  living zone,                            !- Name
  ,                                       !- Multiplier
  ,                                       !- Ceiling Height {m}
  ,                                       !- Volume {m3}
  ,                                       !- Floor Area {m2}
  ,                                       !- Zone Inside Convection Algorithm
  ,                                       !- Zone Outside Convection Algorithm
  ,                                       !- Zone Conditioning Equipment List Name
  {f3d106d2-9f80-4a01-90cc-f150d9349c67}, !- Zone Air Inlet Port List
  {821319b9-cbee-4912-ba46-e67eed7ecd7b}, !- Zone Air Exhaust Port List
  {41659a27-1f1d-4c19-9474-16c0befd5149}, !- Zone Air Node Name
  {ad107025-9fe6-4dda-b569-c67054cadb06}, !- Zone Return Air Port List
  ,                                       !- Primary Daylighting Control Name
  ,                                       !- Fraction of Zone Controlled by Primary Daylighting Control
  ,                                       !- Secondary Daylighting Control Name
  ,                                       !- Fraction of Zone Controlled by Secondary Daylighting Control
  ,                                       !- Illuminance Map Name
  ,                                       !- Group Rendering Name
  ,                                       !- Thermostat Name
  No;                                     !- Use Ideal Air Loads

OS:Node,
  {39f5a9a6-2143-4062-9a2a-e343f3221c50}, !- Handle
  Node 1,                                 !- Name
  {41659a27-1f1d-4c19-9474-16c0befd5149}, !- Inlet Port
  ;                                       !- Outlet Port

OS:Connection,
  {41659a27-1f1d-4c19-9474-16c0befd5149}, !- Handle
  {83f52839-d1cf-4fde-96e8-3ed0fefb8c77}, !- Name
  {45360e32-9670-452c-aa86-5a730e4542a0}, !- Source Object
  11,                                     !- Outlet Port
  {39f5a9a6-2143-4062-9a2a-e343f3221c50}, !- Target Object
  2;                                      !- Inlet Port

OS:PortList,
  {f3d106d2-9f80-4a01-90cc-f150d9349c67}, !- Handle
  {f58225d0-2055-4386-a1a4-07cc12100f51}, !- Name
  {45360e32-9670-452c-aa86-5a730e4542a0}; !- HVAC Component

OS:PortList,
  {821319b9-cbee-4912-ba46-e67eed7ecd7b}, !- Handle
  {ee5ad367-63fa-48a9-b53e-94e1eb2bf78b}, !- Name
  {45360e32-9670-452c-aa86-5a730e4542a0}; !- HVAC Component

OS:PortList,
  {ad107025-9fe6-4dda-b569-c67054cadb06}, !- Handle
  {8b093b95-76d7-4783-b804-cc5e20d7bf16}, !- Name
  {45360e32-9670-452c-aa86-5a730e4542a0}; !- HVAC Component

OS:Sizing:Zone,
  {25aba3f2-47cb-404f-bb45-fd6229c6fec8}, !- Handle
  {45360e32-9670-452c-aa86-5a730e4542a0}, !- Zone or ZoneList Name
  SupplyAirTemperature,                   !- Zone Cooling Design Supply Air Temperature Input Method
  14,                                     !- Zone Cooling Design Supply Air Temperature {C}
  11.11,                                  !- Zone Cooling Design Supply Air Temperature Difference {deltaC}
  SupplyAirTemperature,                   !- Zone Heating Design Supply Air Temperature Input Method
  40,                                     !- Zone Heating Design Supply Air Temperature {C}
  11.11,                                  !- Zone Heating Design Supply Air Temperature Difference {deltaC}
  0.0085,                                 !- Zone Cooling Design Supply Air Humidity Ratio {kg-H2O/kg-air}
  0.008,                                  !- Zone Heating Design Supply Air Humidity Ratio {kg-H2O/kg-air}
  ,                                       !- Zone Heating Sizing Factor
  ,                                       !- Zone Cooling Sizing Factor
  DesignDay,                              !- Cooling Design Air Flow Method
  ,                                       !- Cooling Design Air Flow Rate {m3/s}
  ,                                       !- Cooling Minimum Air Flow per Zone Floor Area {m3/s-m2}
  ,                                       !- Cooling Minimum Air Flow {m3/s}
  ,                                       !- Cooling Minimum Air Flow Fraction
  DesignDay,                              !- Heating Design Air Flow Method
  ,                                       !- Heating Design Air Flow Rate {m3/s}
  ,                                       !- Heating Maximum Air Flow per Zone Floor Area {m3/s-m2}
  ,                                       !- Heating Maximum Air Flow {m3/s}
  ,                                       !- Heating Maximum Air Flow Fraction
  ,                                       !- Design Zone Air Distribution Effectiveness in Cooling Mode
  ,                                       !- Design Zone Air Distribution Effectiveness in Heating Mode
  No,                                     !- Account for Dedicated Outdoor Air System
  NeutralSupplyAir,                       !- Dedicated Outdoor Air System Control Strategy
  autosize,                               !- Dedicated Outdoor Air Low Setpoint Temperature for Design {C}
  autosize;                               !- Dedicated Outdoor Air High Setpoint Temperature for Design {C}

OS:ZoneHVAC:EquipmentList,
  {ee854335-24ce-442f-bd8b-54d948d08d5b}, !- Handle
  Zone HVAC Equipment List 1,             !- Name
  {45360e32-9670-452c-aa86-5a730e4542a0}; !- Thermal Zone

OS:ThermalZone,
  {bfdaa98b-73ee-4a0d-8ffd-872361a54ff6}, !- Handle
  garage zone,                            !- Name
  ,                                       !- Multiplier
  ,                                       !- Ceiling Height {m}
  ,                                       !- Volume {m3}
  ,                                       !- Floor Area {m2}
  ,                                       !- Zone Inside Convection Algorithm
  ,                                       !- Zone Outside Convection Algorithm
  ,                                       !- Zone Conditioning Equipment List Name
  {44656d90-e2a8-4eae-9bb8-6badce6858e4}, !- Zone Air Inlet Port List
  {28c6a12e-7d41-4a37-9720-3ee95aec1dda}, !- Zone Air Exhaust Port List
  {62eeed07-b824-43ae-b837-7f8658a28227}, !- Zone Air Node Name
  {dc9b401e-0fc2-461e-b820-58dd03c23d75}, !- Zone Return Air Port List
  ,                                       !- Primary Daylighting Control Name
  ,                                       !- Fraction of Zone Controlled by Primary Daylighting Control
  ,                                       !- Secondary Daylighting Control Name
  ,                                       !- Fraction of Zone Controlled by Secondary Daylighting Control
  ,                                       !- Illuminance Map Name
  ,                                       !- Group Rendering Name
  ,                                       !- Thermostat Name
  No;                                     !- Use Ideal Air Loads

OS:Node,
  {15e06c30-a7ad-4041-b6d0-ac58960a808e}, !- Handle
  Node 2,                                 !- Name
  {62eeed07-b824-43ae-b837-7f8658a28227}, !- Inlet Port
  ;                                       !- Outlet Port

OS:Connection,
  {62eeed07-b824-43ae-b837-7f8658a28227}, !- Handle
  {7ec77ccd-48f4-48a3-99d1-730819434bb8}, !- Name
  {bfdaa98b-73ee-4a0d-8ffd-872361a54ff6}, !- Source Object
  11,                                     !- Outlet Port
  {15e06c30-a7ad-4041-b6d0-ac58960a808e}, !- Target Object
  2;                                      !- Inlet Port

OS:PortList,
  {44656d90-e2a8-4eae-9bb8-6badce6858e4}, !- Handle
  {32867048-0023-4cbc-9453-d95b7a1e5e9f}, !- Name
  {bfdaa98b-73ee-4a0d-8ffd-872361a54ff6}; !- HVAC Component

OS:PortList,
  {28c6a12e-7d41-4a37-9720-3ee95aec1dda}, !- Handle
  {344a0adf-fb6b-4379-af0d-815ee43625a7}, !- Name
  {bfdaa98b-73ee-4a0d-8ffd-872361a54ff6}; !- HVAC Component

OS:PortList,
  {dc9b401e-0fc2-461e-b820-58dd03c23d75}, !- Handle
  {9a9d3efa-9490-4d5e-829c-56bfc8ef2e68}, !- Name
  {bfdaa98b-73ee-4a0d-8ffd-872361a54ff6}; !- HVAC Component

OS:Sizing:Zone,
  {f4011a48-2fc1-4c23-bcae-fe90d676a141}, !- Handle
  {bfdaa98b-73ee-4a0d-8ffd-872361a54ff6}, !- Zone or ZoneList Name
  SupplyAirTemperature,                   !- Zone Cooling Design Supply Air Temperature Input Method
  14,                                     !- Zone Cooling Design Supply Air Temperature {C}
  11.11,                                  !- Zone Cooling Design Supply Air Temperature Difference {deltaC}
  SupplyAirTemperature,                   !- Zone Heating Design Supply Air Temperature Input Method
  40,                                     !- Zone Heating Design Supply Air Temperature {C}
  11.11,                                  !- Zone Heating Design Supply Air Temperature Difference {deltaC}
  0.0085,                                 !- Zone Cooling Design Supply Air Humidity Ratio {kg-H2O/kg-air}
  0.008,                                  !- Zone Heating Design Supply Air Humidity Ratio {kg-H2O/kg-air}
  ,                                       !- Zone Heating Sizing Factor
  ,                                       !- Zone Cooling Sizing Factor
  DesignDay,                              !- Cooling Design Air Flow Method
  ,                                       !- Cooling Design Air Flow Rate {m3/s}
  ,                                       !- Cooling Minimum Air Flow per Zone Floor Area {m3/s-m2}
  ,                                       !- Cooling Minimum Air Flow {m3/s}
  ,                                       !- Cooling Minimum Air Flow Fraction
  DesignDay,                              !- Heating Design Air Flow Method
  ,                                       !- Heating Design Air Flow Rate {m3/s}
  ,                                       !- Heating Maximum Air Flow per Zone Floor Area {m3/s-m2}
  ,                                       !- Heating Maximum Air Flow {m3/s}
  ,                                       !- Heating Maximum Air Flow Fraction
  ,                                       !- Design Zone Air Distribution Effectiveness in Cooling Mode
  ,                                       !- Design Zone Air Distribution Effectiveness in Heating Mode
  No,                                     !- Account for Dedicated Outdoor Air System
  NeutralSupplyAir,                       !- Dedicated Outdoor Air System Control Strategy
  autosize,                               !- Dedicated Outdoor Air Low Setpoint Temperature for Design {C}
  autosize;                               !- Dedicated Outdoor Air High Setpoint Temperature for Design {C}

OS:ZoneHVAC:EquipmentList,
  {87704d61-b956-4877-8057-5ae6fb4f4383}, !- Handle
  Zone HVAC Equipment List 2,             !- Name
  {bfdaa98b-73ee-4a0d-8ffd-872361a54ff6}; !- Thermal Zone

OS:Space,
  {7b8451e9-e8a0-4bba-b188-533fd13bd09f}, !- Handle
  garage space,                           !- Name
  {eefcc033-d19d-45c0-8e8f-4c9fa4b75122}, !- Space Type Name
  ,                                       !- Default Construction Set Name
  ,                                       !- Default Schedule Set Name
  -0,                                     !- Direction of Relative North {deg}
  0,                                      !- X Origin {m}
  0,                                      !- Y Origin {m}
  0,                                      !- Z Origin {m}
  ,                                       !- Building Story Name
  {bfdaa98b-73ee-4a0d-8ffd-872361a54ff6}; !- Thermal Zone Name

OS:Surface,
  {ea118503-e0a2-4bd0-bd28-29033fd07ed0}, !- Handle
  Surface 1,                              !- Name
  Floor,                                  !- Surface Type
  ,                                       !- Construction Name
  {7b8451e9-e8a0-4bba-b188-533fd13bd09f}, !- Space Name
  Foundation,                             !- Outside Boundary Condition
  ,                                       !- Outside Boundary Condition Object
  NoSun,                                  !- Sun Exposure
  NoWind,                                 !- Wind Exposure
  ,                                       !- View Factor to Ground
  ,                                       !- Number of Vertices
  5.57695129776527, -3.048, 0,            !- X,Y,Z Vertex 1 {m}
  5.57695129776527, 3.048, 0,             !- X,Y,Z Vertex 2 {m}
  11.6729512977653, 3.048, 0,             !- X,Y,Z Vertex 3 {m}
  11.6729512977653, -3.048, 0;            !- X,Y,Z Vertex 4 {m}

OS:Surface,
  {49cbae00-54c0-4989-a328-040db851fcb9}, !- Handle
  Surface 2,                              !- Name
  Wall,                                   !- Surface Type
  ,                                       !- Construction Name
  {7b8451e9-e8a0-4bba-b188-533fd13bd09f}, !- Space Name
  Surface,                                !- Outside Boundary Condition
  {c7a12fb1-c68e-41bb-b6c3-8f6b5478bf8e}, !- Outside Boundary Condition Object
  NoSun,                                  !- Sun Exposure
  NoWind,                                 !- Wind Exposure
  ,                                       !- View Factor to Ground
  ,                                       !- Number of Vertices
  5.57695129776527, 3.048, 2.4384,        !- X,Y,Z Vertex 1 {m}
  5.57695129776527, 3.048, 0,             !- X,Y,Z Vertex 2 {m}
  5.57695129776527, 0, 0,                 !- X,Y,Z Vertex 3 {m}
  5.57695129776527, 0, 2.4384;            !- X,Y,Z Vertex 4 {m}

OS:Surface,
  {542aab7b-16da-492e-b03b-7c5f66329e74}, !- Handle
  Surface 3,                              !- Name
  Wall,                                   !- Surface Type
  ,                                       !- Construction Name
  {7b8451e9-e8a0-4bba-b188-533fd13bd09f}, !- Space Name
  Surface,                                !- Outside Boundary Condition
  {0531dd2d-e720-44cc-ab39-311afaf7a138}, !- Outside Boundary Condition Object
  NoSun,                                  !- Sun Exposure
  NoWind,                                 !- Wind Exposure
  ,                                       !- View Factor to Ground
  ,                                       !- Number of Vertices
  11.6729512977653, 3.048, 2.4384,        !- X,Y,Z Vertex 1 {m}
  11.6729512977653, 3.048, 0,             !- X,Y,Z Vertex 2 {m}
  5.57695129776527, 3.048, 0,             !- X,Y,Z Vertex 3 {m}
  5.57695129776527, 3.048, 2.4384;        !- X,Y,Z Vertex 4 {m}

OS:Surface,
  {427c756e-c777-4372-ba51-56f8f2c6e5e7}, !- Handle
  Surface 4,                              !- Name
  Wall,                                   !- Surface Type
  ,                                       !- Construction Name
  {7b8451e9-e8a0-4bba-b188-533fd13bd09f}, !- Space Name
  Outdoors,                               !- Outside Boundary Condition
  ,                                       !- Outside Boundary Condition Object
  SunExposed,                             !- Sun Exposure
  WindExposed,                            !- Wind Exposure
  ,                                       !- View Factor to Ground
  ,                                       !- Number of Vertices
  11.6729512977653, -3.048, 2.4384,       !- X,Y,Z Vertex 1 {m}
  11.6729512977653, -3.048, 0,            !- X,Y,Z Vertex 2 {m}
  11.6729512977653, 3.048, 0,             !- X,Y,Z Vertex 3 {m}
  11.6729512977653, 3.048, 2.4384;        !- X,Y,Z Vertex 4 {m}

OS:Surface,
  {59e53fbc-e6cf-498e-ba85-76039b46d56e}, !- Handle
  Surface 5,                              !- Name
  Wall,                                   !- Surface Type
  ,                                       !- Construction Name
  {7b8451e9-e8a0-4bba-b188-533fd13bd09f}, !- Space Name
  Outdoors,                               !- Outside Boundary Condition
  ,                                       !- Outside Boundary Condition Object
  SunExposed,                             !- Sun Exposure
  WindExposed,                            !- Wind Exposure
  ,                                       !- View Factor to Ground
  ,                                       !- Number of Vertices
  5.57695129776527, -3.048, 2.4384,       !- X,Y,Z Vertex 1 {m}
  5.57695129776527, -3.048, 0,            !- X,Y,Z Vertex 2 {m}
  11.6729512977653, -3.048, 0,            !- X,Y,Z Vertex 3 {m}
  11.6729512977653, -3.048, 2.4384;       !- X,Y,Z Vertex 4 {m}

OS:Surface,
  {b859be46-d0fb-4f3e-ac11-d579ee2df583}, !- Handle
  Surface 6,                              !- Name
  RoofCeiling,                            !- Surface Type
  ,                                       !- Construction Name
  {7b8451e9-e8a0-4bba-b188-533fd13bd09f}, !- Space Name
  Surface,                                !- Outside Boundary Condition
  {919f710b-56d2-4fc1-8dad-1f29e6f068d9}, !- Outside Boundary Condition Object
  NoSun,                                  !- Sun Exposure
  NoWind,                                 !- Wind Exposure
  ,                                       !- View Factor to Ground
  ,                                       !- Number of Vertices
  11.6729512977653, -3.048, 2.4384,       !- X,Y,Z Vertex 1 {m}
  11.6729512977653, 3.048, 2.4384,        !- X,Y,Z Vertex 2 {m}
  5.57695129776527, 3.048, 2.4384,        !- X,Y,Z Vertex 3 {m}
  5.57695129776527, -3.048, 2.4384;       !- X,Y,Z Vertex 4 {m}

OS:SpaceType,
  {eefcc033-d19d-45c0-8e8f-4c9fa4b75122}, !- Handle
  Space Type 1,                           !- Name
  ,                                       !- Default Construction Set Name
  ,                                       !- Default Schedule Set Name
  ,                                       !- Group Rendering Name
  ,                                       !- Design Specification Outdoor Air Object Name
  ,                                       !- Standards Template
  ,                                       !- Standards Building Type
  garage;                                 !- Standards Space Type

OS:Space,
  {c82135e9-07b2-4ea5-89bd-869f3b7f64b7}, !- Handle
  living space,                           !- Name
  {20a2a356-b8c8-4a05-b8e4-a7d658e1547f}, !- Space Type Name
  ,                                       !- Default Construction Set Name
  ,                                       !- Default Schedule Set Name
  -0,                                     !- Direction of Relative North {deg}
  0,                                      !- X Origin {m}
  0,                                      !- Y Origin {m}
  0,                                      !- Z Origin {m}
  ,                                       !- Building Story Name
  {45360e32-9670-452c-aa86-5a730e4542a0}, !- Thermal Zone Name
  ,                                       !- Part of Total Floor Area
  ,                                       !- Design Specification Outdoor Air Object Name
  {ab8a4882-cc43-4da1-b647-b7ee0b2f27b3}; !- Building Unit Name

OS:Surface,
  {3e8244ab-8e4f-4c8b-88dd-32c2b0419cc5}, !- Handle
  Surface 7,                              !- Name
  Floor,                                  !- Surface Type
  ,                                       !- Construction Name
  {c82135e9-07b2-4ea5-89bd-869f3b7f64b7}, !- Space Name
  Surface,                                !- Outside Boundary Condition
  {ccf410ac-11fd-468a-bb1f-b9b7267ee4b3}, !- Outside Boundary Condition Object
  NoSun,                                  !- Sun Exposure
  NoWind,                                 !- Wind Exposure
  ,                                       !- View Factor to Ground
  ,                                       !- Number of Vertices
  0, 0, 0,                                !- X,Y,Z Vertex 1 {m}
  0, 5.83647564888264, 0,                 !- X,Y,Z Vertex 2 {m}
  11.6729512977653, 5.83647564888264, 0,  !- X,Y,Z Vertex 3 {m}
  11.6729512977653, 3.048, 0,             !- X,Y,Z Vertex 4 {m}
  5.57695129776527, 3.048, 0,             !- X,Y,Z Vertex 5 {m}
  5.57695129776527, 0, 0;                 !- X,Y,Z Vertex 6 {m}

OS:Surface,
  {577a0571-5a6f-41fc-ab45-67fb858a2731}, !- Handle
  Surface 8,                              !- Name
  Wall,                                   !- Surface Type
  ,                                       !- Construction Name
  {c82135e9-07b2-4ea5-89bd-869f3b7f64b7}, !- Space Name
  Outdoors,                               !- Outside Boundary Condition
  ,                                       !- Outside Boundary Condition Object
  SunExposed,                             !- Sun Exposure
  WindExposed,                            !- Wind Exposure
  ,                                       !- View Factor to Ground
  ,                                       !- Number of Vertices
  0, 5.83647564888264, 2.4384,            !- X,Y,Z Vertex 1 {m}
  0, 5.83647564888264, 0,                 !- X,Y,Z Vertex 2 {m}
  0, 0, 0,                                !- X,Y,Z Vertex 3 {m}
  0, 0, 2.4384;                           !- X,Y,Z Vertex 4 {m}

OS:Surface,
  {48c78fc2-4b4a-43ff-bcd4-951809d692c6}, !- Handle
  Surface 9,                              !- Name
  Wall,                                   !- Surface Type
  ,                                       !- Construction Name
  {c82135e9-07b2-4ea5-89bd-869f3b7f64b7}, !- Space Name
  Outdoors,                               !- Outside Boundary Condition
  ,                                       !- Outside Boundary Condition Object
  SunExposed,                             !- Sun Exposure
  WindExposed,                            !- Wind Exposure
  ,                                       !- View Factor to Ground
  ,                                       !- Number of Vertices
  11.6729512977653, 5.83647564888264, 2.4384, !- X,Y,Z Vertex 1 {m}
  11.6729512977653, 5.83647564888264, 0,  !- X,Y,Z Vertex 2 {m}
  0, 5.83647564888264, 0,                 !- X,Y,Z Vertex 3 {m}
  0, 5.83647564888264, 2.4384;            !- X,Y,Z Vertex 4 {m}

OS:Surface,
  {29dbd466-1caf-47c6-8639-f22d796c0d97}, !- Handle
  Surface 10,                             !- Name
  Wall,                                   !- Surface Type
  ,                                       !- Construction Name
  {c82135e9-07b2-4ea5-89bd-869f3b7f64b7}, !- Space Name
  Outdoors,                               !- Outside Boundary Condition
  ,                                       !- Outside Boundary Condition Object
  SunExposed,                             !- Sun Exposure
  WindExposed,                            !- Wind Exposure
  ,                                       !- View Factor to Ground
  ,                                       !- Number of Vertices
  11.6729512977653, 3.048, 2.4384,        !- X,Y,Z Vertex 1 {m}
  11.6729512977653, 3.048, 0,             !- X,Y,Z Vertex 2 {m}
  11.6729512977653, 5.83647564888264, 0,  !- X,Y,Z Vertex 3 {m}
  11.6729512977653, 5.83647564888264, 2.4384; !- X,Y,Z Vertex 4 {m}

OS:Surface,
  {0531dd2d-e720-44cc-ab39-311afaf7a138}, !- Handle
  Surface 11,                             !- Name
  Wall,                                   !- Surface Type
  ,                                       !- Construction Name
  {c82135e9-07b2-4ea5-89bd-869f3b7f64b7}, !- Space Name
  Surface,                                !- Outside Boundary Condition
  {542aab7b-16da-492e-b03b-7c5f66329e74}, !- Outside Boundary Condition Object
  NoSun,                                  !- Sun Exposure
  NoWind,                                 !- Wind Exposure
  ,                                       !- View Factor to Ground
  ,                                       !- Number of Vertices
  5.57695129776527, 3.048, 2.4384,        !- X,Y,Z Vertex 1 {m}
  5.57695129776527, 3.048, 0,             !- X,Y,Z Vertex 2 {m}
  11.6729512977653, 3.048, 0,             !- X,Y,Z Vertex 3 {m}
  11.6729512977653, 3.048, 2.4384;        !- X,Y,Z Vertex 4 {m}

OS:Surface,
  {c7a12fb1-c68e-41bb-b6c3-8f6b5478bf8e}, !- Handle
  Surface 12,                             !- Name
  Wall,                                   !- Surface Type
  ,                                       !- Construction Name
  {c82135e9-07b2-4ea5-89bd-869f3b7f64b7}, !- Space Name
  Surface,                                !- Outside Boundary Condition
  {49cbae00-54c0-4989-a328-040db851fcb9}, !- Outside Boundary Condition Object
  NoSun,                                  !- Sun Exposure
  NoWind,                                 !- Wind Exposure
  ,                                       !- View Factor to Ground
  ,                                       !- Number of Vertices
  5.57695129776527, 0, 2.4384,            !- X,Y,Z Vertex 1 {m}
  5.57695129776527, 0, 0,                 !- X,Y,Z Vertex 2 {m}
  5.57695129776527, 3.048, 0,             !- X,Y,Z Vertex 3 {m}
  5.57695129776527, 3.048, 2.4384;        !- X,Y,Z Vertex 4 {m}

OS:Surface,
  {03de7ce9-f3e1-4f7c-8a52-a1850deea15a}, !- Handle
  Surface 13,                             !- Name
  Wall,                                   !- Surface Type
  ,                                       !- Construction Name
  {c82135e9-07b2-4ea5-89bd-869f3b7f64b7}, !- Space Name
  Outdoors,                               !- Outside Boundary Condition
  ,                                       !- Outside Boundary Condition Object
  SunExposed,                             !- Sun Exposure
  WindExposed,                            !- Wind Exposure