!- NOTE: Auto-generated from /test/osw_files/SFD_HVACSizing_Equip_Dehumidifier_Fixed_Miami.osw

OS:Version,
  {38b7ac91-b728-4129-8ec8-b71ff1f0019e}, !- Handle
  2.9.0;                                  !- Version Identifier

OS:SimulationControl,
  {daf71cf8-886f-4947-bc3b-d48797543beb}, !- Handle
  ,                                       !- Do Zone Sizing Calculation
  ,                                       !- Do System Sizing Calculation
  ,                                       !- Do Plant Sizing Calculation
  No;                                     !- Run Simulation for Sizing Periods

OS:Timestep,
  {2bbe0418-2cf0-48bf-8af9-bf93c0ded462}, !- Handle
  6;                                      !- Number of Timesteps per Hour

OS:ShadowCalculation,
  {0a86cf68-532d-4c8b-ad63-fc5343614ebb}, !- Handle
  20,                                     !- Calculation Frequency
  200;                                    !- Maximum Figures in Shadow Overlap Calculations

OS:SurfaceConvectionAlgorithm:Outside,
  {c31c86a8-6ef1-4c36-83aa-c9dc0585447e}, !- Handle
  DOE-2;                                  !- Algorithm

OS:SurfaceConvectionAlgorithm:Inside,
  {f2bf846e-949d-4dc0-b261-11121df47ebf}, !- Handle
  TARP;                                   !- Algorithm

OS:ZoneCapacitanceMultiplier:ResearchSpecial,
  {8d40995b-094a-4151-a385-20c2b5ac843e}, !- Handle
  ,                                       !- Temperature Capacity Multiplier
  15,                                     !- Humidity Capacity Multiplier
  ;                                       !- Carbon Dioxide Capacity Multiplier

OS:RunPeriod,
  {cba63554-1840-4902-89d0-3966e36110cb}, !- Handle
  Run Period 1,                           !- Name
  1,                                      !- Begin Month
  1,                                      !- Begin Day of Month
  12,                                     !- End Month
  31,                                     !- End Day of Month
  ,                                       !- Use Weather File Holidays and Special Days
  ,                                       !- Use Weather File Daylight Saving Period
  ,                                       !- Apply Weekend Holiday Rule
  ,                                       !- Use Weather File Rain Indicators
  ,                                       !- Use Weather File Snow Indicators
  ;                                       !- Number of Times Runperiod to be Repeated

OS:YearDescription,
  {6dc87f91-fc2d-4a00-b286-ebe21f7a17d3}, !- Handle
  2007,                                   !- Calendar Year
  ,                                       !- Day of Week for Start Day
  ;                                       !- Is Leap Year

OS:WeatherFile,
  {56eb52f3-59fd-436e-bb2e-459bf8855ef8}, !- Handle
  Miami Intl Ap,                          !- City
  FL,                                     !- State Province Region
  USA,                                    !- Country
  TMY3,                                   !- Data Source
  722020,                                 !- WMO Number
  25.82,                                  !- Latitude {deg}
  -80.3,                                  !- Longitude {deg}
  -5,                                     !- Time Zone {hr}
  11,                                     !- Elevation {m}
  file:../weather/USA_FL_Miami.Intl.AP.722020_TMY3.epw, !- Url
  7D992F19;                               !- Checksum

OS:AdditionalProperties,
  {f49dd823-54d4-4e2f-bb97-905d5f3eaf91}, !- Handle
  {56eb52f3-59fd-436e-bb2e-459bf8855ef8}, !- Object Name
  EPWHeaderCity,                          !- Feature Name 1
  String,                                 !- Feature Data Type 1
  Miami Intl Ap,                          !- Feature Value 1
  EPWHeaderState,                         !- Feature Name 2
  String,                                 !- Feature Data Type 2
  FL,                                     !- Feature Value 2
  EPWHeaderCountry,                       !- Feature Name 3
  String,                                 !- Feature Data Type 3
  USA,                                    !- Feature Value 3
  EPWHeaderDataSource,                    !- Feature Name 4
  String,                                 !- Feature Data Type 4
  TMY3,                                   !- Feature Value 4
  EPWHeaderStation,                       !- Feature Name 5
  String,                                 !- Feature Data Type 5
  722020,                                 !- Feature Value 5
  EPWHeaderLatitude,                      !- Feature Name 6
  Double,                                 !- Feature Data Type 6
  25.82,                                  !- Feature Value 6
  EPWHeaderLongitude,                     !- Feature Name 7
  Double,                                 !- Feature Data Type 7
  -80.299999999999997,                    !- Feature Value 7
  EPWHeaderTimezone,                      !- Feature Name 8
  Double,                                 !- Feature Data Type 8
  -5,                                     !- Feature Value 8
  EPWHeaderAltitude,                      !- Feature Name 9
  Double,                                 !- Feature Data Type 9
  36.089238845144358,                     !- Feature Value 9
  EPWHeaderLocalPressure,                 !- Feature Name 10
  Double,                                 !- Feature Data Type 10
  0.99867279752375582,                    !- Feature Value 10
  EPWHeaderRecordsPerHour,                !- Feature Name 11
  Double,                                 !- Feature Data Type 11
  0,                                      !- Feature Value 11
  EPWDataAnnualAvgDrybulb,                !- Feature Name 12
  Double,                                 !- Feature Data Type 12
  76.112431506849646,                     !- Feature Value 12
  EPWDataAnnualMinDrybulb,                !- Feature Name 13
  Double,                                 !- Feature Data Type 13
  41,                                     !- Feature Value 13
  EPWDataAnnualMaxDrybulb,                !- Feature Name 14
  Double,                                 !- Feature Data Type 14
  96.079999999999998,                     !- Feature Value 14
  EPWDataCDD50F,                          !- Feature Name 15
  Double,                                 !- Feature Data Type 15
  9531.0375000000095,                     !- Feature Value 15
  EPWDataCDD65F,                          !- Feature Name 16
  Double,                                 !- Feature Data Type 16
  4195.6950000000024,                     !- Feature Value 16
  EPWDataHDD50F,                          !- Feature Name 17
  Double,                                 !- Feature Data Type 17
  0,                                      !- Feature Value 17
  EPWDataHDD65F,                          !- Feature Name 18
  Double,                                 !- Feature Data Type 18
  139.65749999999994,                     !- Feature Value 18
  EPWDataAnnualAvgWindspeed,              !- Feature Name 19
  Double,                                 !- Feature Data Type 19
  4.1177511415521071,                     !- Feature Value 19
  EPWDataMonthlyAvgDrybulbs,              !- Feature Name 20
  String,                                 !- Feature Data Type 20
  66.95193548387095&#4469.5634821428572&#4470.82532258064509&#4475.40050000000002&#4479.54733870967738&#4481.83024999999998&#4482.63032258064513&#4482.35137096774197&#4481.48900000000006&#4479.41935483870965&#4474.45850000000013&#4468.52959677419348, !- Feature Value 20
  EPWDataGroundMonthlyTemps,              !- Feature Name 21
  String,                                 !- Feature Data Type 21
  73.49949161266244&#4472.30037030421141&#4472.20434036952582&#4472.77338470116848&#4475.05778059628489&#4477.33153480622997&#4479.3027581871666&#4480.55147971773891&#4480.65756547050086&#4479.64194038682461&#4477.72098435943627&#4475.51697966748856, !- Feature Value 21
  EPWDataWSF,                             !- Feature Name 22
  Double,                                 !- Feature Data Type 22
  0.40999999999999998,                    !- Feature Value 22
  EPWDataMonthlyAvgDailyHighDrybulbs,     !- Feature Name 23
  String,                                 !- Feature Data Type 23
  74.53225806451614&#4477.66214285714287&#4477.27290322580646&#4481.72800000000001&#4486.04064516129033&#4486.98400000000001&#4490.42451612903224&#4488.4967741935484&#4487.90800000000002&#4485.89548387096775&#4480.03600000000002&#4475.40903225806453, !- Feature Value 23
  EPWDataMonthlyAvgDailyLowDrybulbs,      !- Feature Name 24
  String,                                 !- Feature Data Type 24
  59.80709677419355&#4461.73857142857143&#4464.17935483870968&#4469.69800000000001&#4474.1606451612903&#4476.73&#4476.30322580645162&#4477.12774193548387&#4475.84199999999998&#4474.00387096774193&#4467.946&#4461.816129032258054, !- Feature Value 24
  EPWDesignHeatingDrybulb,                !- Feature Name 25
  Double,                                 !- Feature Data Type 25
  51.980000000000004,                     !- Feature Value 25
  EPWDesignHeatingWindspeed,              !- Feature Name 26
  Double,                                 !- Feature Data Type 26
  3.7461538461538462,                     !- Feature Value 26
  EPWDesignCoolingDrybulb,                !- Feature Name 27
  Double,                                 !- Feature Data Type 27
  89.960000000000008,                     !- Feature Value 27
  EPWDesignCoolingWetbulb,                !- Feature Name 28
  Double,                                 !- Feature Data Type 28
  77.005134139097905,                     !- Feature Value 28
  EPWDesignCoolingHumidityRatio,          !- Feature Name 29
  Double,                                 !- Feature Data Type 29
  0.016947724336000048,                   !- Feature Value 29
  EPWDesignCoolingWindspeed,              !- Feature Name 30
  Double,                                 !- Feature Data Type 30
  4.5874999999999959,                     !- Feature Value 30
  EPWDesignDailyTemperatureRange,         !- Feature Name 31
  Double,                                 !- Feature Data Type 31
  11.369032258064536,                     !- Feature Value 31
  EPWDesignDehumidDrybulb,                !- Feature Name 32
  Double,                                 !- Feature Data Type 32
  81.970769230769221,                     !- Feature Value 32
  EPWDesignDehumidHumidityRatio,          !- Feature Name 33
  Double,                                 !- Feature Data Type 33
  0.019380342324718424,                   !- Feature Value 33
  EPWDesignCoolingDirectNormal,           !- Feature Name 34
  Double,                                 !- Feature Data Type 34
  817,                                    !- Feature Value 34
  EPWDesignCoolingDiffuseHorizontal,      !- Feature Name 35
  Double,                                 !- Feature Data Type 35
  229;                                    !- Feature Value 35

OS:Site,
  {4b30f531-5af5-42b7-a4f2-4588dad34c4d}, !- Handle
  Miami Intl Ap_FL_USA,                   !- Name
  25.82,                                  !- Latitude {deg}
  -80.3,                                  !- Longitude {deg}
  -5,                                     !- Time Zone {hr}
  11,                                     !- Elevation {m}
  Suburbs;                                !- Terrain

OS:ClimateZones,
  {92f7ff8c-6d06-4203-a287-7172d0620182}, !- Handle
  ,                                       !- Active Institution
  ,                                       !- Active Year
  ,                                       !- Climate Zone Institution Name 1
  ,                                       !- Climate Zone Document Name 1
  ,                                       !- Climate Zone Document Year 1
  ,                                       !- Climate Zone Value 1
  Building America,                       !- Climate Zone Institution Name 2
  ,                                       !- Climate Zone Document Name 2
  0,                                      !- Climate Zone Document Year 2
  Hot-Humid;                              !- Climate Zone Value 2

OS:Site:WaterMainsTemperature,
  {d7431407-b49f-4f9a-9a09-5a2e21520680}, !- Handle
  Correlation,                            !- Calculation Method
  ,                                       !- Temperature Schedule Name
  24.5069063926942,                       !- Annual Average Outdoor Air Temperature {C}
  8.71021505376343;                       !- Maximum Difference In Monthly Average Outdoor Air Temperatures {deltaC}

OS:RunPeriodControl:DaylightSavingTime,
  {5f2d9452-b75b-4308-bfe1-bd9339f10cdc}, !- Handle
  3/12,                                   !- Start Date
  11/5;                                   !- End Date

OS:Site:GroundTemperature:Deep,
  {1e2f4ca2-3316-4c15-b459-8bdc543617d1}, !- Handle
  24.5069063926942,                       !- January Deep Ground Temperature {C}
  24.5069063926942,                       !- February Deep Ground Temperature {C}
  24.5069063926942,                       !- March Deep Ground Temperature {C}
  24.5069063926942,                       !- April Deep Ground Temperature {C}
  24.5069063926942,                       !- May Deep Ground Temperature {C}
  24.5069063926942,                       !- June Deep Ground Temperature {C}
  24.5069063926942,                       !- July Deep Ground Temperature {C}
  24.5069063926942,                       !- August Deep Ground Temperature {C}
  24.5069063926942,                       !- September Deep Ground Temperature {C}
  24.5069063926942,                       !- October Deep Ground Temperature {C}
  24.5069063926942,                       !- November Deep Ground Temperature {C}
  24.5069063926942;                       !- December Deep Ground Temperature {C}

OS:Building,
  {c51e8ee6-c609-4b65-a961-92842767dccf}, !- Handle
  Building 1,                             !- Name
  ,                                       !- Building Sector Type
  22.5,                                   !- North Axis {deg}
  ,                                       !- Nominal Floor to Floor Height {m}
  ,                                       !- Space Type Name
  ,                                       !- Default Construction Set Name
  ,                                       !- Default Schedule Set Name
  4,                                      !- Standards Number of Stories
  3,                                      !- Standards Number of Above Ground Stories
  ,                                       !- Standards Template
  singlefamilydetached,                   !- Standards Building Type
  1;                                      !- Standards Number of Living Units

OS:AdditionalProperties,
  {5f8e0079-0cca-4d8c-a02b-a88595e6be77}, !- Handle
  {c51e8ee6-c609-4b65-a961-92842767dccf}, !- Object Name
  Total Units Modeled,                    !- Feature Name 1
  Integer,                                !- Feature Data Type 1
  1,                                      !- Feature Value 1
  has_water_heater_flue,                  !- Feature Name 2
  Boolean,                                !- Feature Data Type 2
  true;                                   !- Feature Value 2

OS:ThermalZone,
  {0992a1c6-cbcf-4346-ae88-16e61d55dd3f}, !- Handle
  living zone,                            !- Name
  ,                                       !- Multiplier
  ,                                       !- Ceiling Height {m}
  ,                                       !- Volume {m3}
  ,                                       !- Floor Area {m2}
  ,                                       !- Zone Inside Convection Algorithm
  ,                                       !- Zone Outside Convection Algorithm
  ,                                       !- Zone Conditioning Equipment List Name
  {7c7dad05-43f2-4f6e-889d-939a3342d3d3}, !- Zone Air Inlet Port List
  {38e7e4ee-54ac-44a2-9c34-701214460058}, !- Zone Air Exhaust Port List
  {e3db0162-3a14-49e2-a544-6938b75bcf5c}, !- Zone Air Node Name
  {2a6628dc-76db-4fc4-898b-87491e89067e}, !- Zone Return Air Port List
  ,                                       !- Primary Daylighting Control Name
  ,                                       !- Fraction of Zone Controlled by Primary Daylighting Control
  ,                                       !- Secondary Daylighting Control Name
  ,                                       !- Fraction of Zone Controlled by Secondary Daylighting Control
  ,                                       !- Illuminance Map Name
  ,                                       !- Group Rendering Name
  ,                                       !- Thermostat Name
  No,                                     !- Use Ideal Air Loads
  {26e877f6-deeb-45db-a407-e2590f7bc4b6}; !- Humidistat Name

OS:Node,
  {e1aa2299-357e-414e-800a-773f313166df}, !- Handle
  Node 1,                                 !- Name
  {e3db0162-3a14-49e2-a544-6938b75bcf5c}, !- Inlet Port
  ;                                       !- Outlet Port

OS:Connection,
  {e3db0162-3a14-49e2-a544-6938b75bcf5c}, !- Handle
  {d3012917-3a47-44f0-bc7b-56cf4da5ab1f}, !- Name
  {0992a1c6-cbcf-4346-ae88-16e61d55dd3f}, !- Source Object
  11,                                     !- Outlet Port
  {e1aa2299-357e-414e-800a-773f313166df}, !- Target Object
  2;                                      !- Inlet Port

OS:PortList,
  {7c7dad05-43f2-4f6e-889d-939a3342d3d3}, !- Handle
  {7ced7cfe-43ed-4c63-afe2-f613d5c5639f}, !- Name
  {0992a1c6-cbcf-4346-ae88-16e61d55dd3f}, !- HVAC Component
  {ebf418e9-7505-40c2-969d-40db9cc6a09e}; !- Port 1

OS:PortList,
  {38e7e4ee-54ac-44a2-9c34-701214460058}, !- Handle
  {e09eca1c-b614-4f63-926a-c6c0b51e18bb}, !- Name
  {0992a1c6-cbcf-4346-ae88-16e61d55dd3f}, !- HVAC Component
  {265a7355-a855-45dd-8636-7082ac0261eb}; !- Port 1

OS:PortList,
  {2a6628dc-76db-4fc4-898b-87491e89067e}, !- Handle
  {a67a2696-2eea-49b6-a3f8-33d74a35b560}, !- Name
  {0992a1c6-cbcf-4346-ae88-16e61d55dd3f}; !- HVAC Component

OS:Sizing:Zone,
  {2bfc4235-ec8d-4139-bba8-8c034c342d8a}, !- Handle
  {0992a1c6-cbcf-4346-ae88-16e61d55dd3f}, !- Zone or ZoneList Name
  SupplyAirTemperature,                   !- Zone Cooling Design Supply Air Temperature Input Method
  14,                                     !- Zone Cooling Design Supply Air Temperature {C}
  11.11,                                  !- Zone Cooling Design Supply Air Temperature Difference {deltaC}
  SupplyAirTemperature,                   !- Zone Heating Design Supply Air Temperature Input Method
  40,                                     !- Zone Heating Design Supply Air Temperature {C}
  11.11,                                  !- Zone Heating Design Supply Air Temperature Difference {deltaC}
  0.0085,                                 !- Zone Cooling Design Supply Air Humidity Ratio {kg-H2O/kg-air}
  0.008,                                  !- Zone Heating Design Supply Air Humidity Ratio {kg-H2O/kg-air}
  ,                                       !- Zone Heating Sizing Factor
  ,                                       !- Zone Cooling Sizing Factor
  DesignDay,                              !- Cooling Design Air Flow Method
  ,                                       !- Cooling Design Air Flow Rate {m3/s}
  ,                                       !- Cooling Minimum Air Flow per Zone Floor Area {m3/s-m2}
  ,                                       !- Cooling Minimum Air Flow {m3/s}
  ,                                       !- Cooling Minimum Air Flow Fraction
  DesignDay,                              !- Heating Design Air Flow Method
  ,                                       !- Heating Design Air Flow Rate {m3/s}
  ,                                       !- Heating Maximum Air Flow per Zone Floor Area {m3/s-m2}
  ,                                       !- Heating Maximum Air Flow {m3/s}
  ,                                       !- Heating Maximum Air Flow Fraction
  ,                                       !- Design Zone Air Distribution Effectiveness in Cooling Mode
  ,                                       !- Design Zone Air Distribution Effectiveness in Heating Mode
  No,                                     !- Account for Dedicated Outdoor Air System
  NeutralSupplyAir,                       !- Dedicated Outdoor Air System Control Strategy
  autosize,                               !- Dedicated Outdoor Air Low Setpoint Temperature for Design {C}
  autosize;                               !- Dedicated Outdoor Air High Setpoint Temperature for Design {C}

OS:ZoneHVAC:EquipmentList,
  {8d40f205-cc3a-4d7f-bca3-350dc532cb15}, !- Handle
  Zone HVAC Equipment List 1,             !- Name
  {0992a1c6-cbcf-4346-ae88-16e61d55dd3f}, !- Thermal Zone
  SequentialLoad,                         !- Load Distribution Scheme
  {1a18e590-91d8-4e61-a6e0-2179dbacac65}, !- Zone Equipment 1
  1,                                      !- Zone Equipment Cooling Sequence 1
  1,                                      !- Zone Equipment Heating or No-Load Sequence 1
  ,                                       !- Zone Equipment Sequential Cooling Fraction Schedule Name 1
  ;                                       !- Zone Equipment Sequential Heating Fraction Schedule Name 1

OS:ThermalZone,
  {db635efe-7064-49d8-ab87-0188ecfcf304}, !- Handle
  garage zone,                            !- Name
  ,                                       !- Multiplier
  ,                                       !- Ceiling Height {m}
  ,                                       !- Volume {m3}
  ,                                       !- Floor Area {m2}
  ,                                       !- Zone Inside Convection Algorithm
  ,                                       !- Zone Outside Convection Algorithm
  ,                                       !- Zone Conditioning Equipment List Name
  {2010a30f-c197-443a-bba8-3c8fdf06b22c}, !- Zone Air Inlet Port List
  {ef1d3abc-46ee-4fe5-8db7-3452ecea9b2b}, !- Zone Air Exhaust Port List
  {0bc18ac1-239b-4493-8d25-c0e01f1d2b46}, !- Zone Air Node Name
  {27392550-e131-4a25-a1a4-554c3845c090}, !- Zone Return Air Port List
  ,                                       !- Primary Daylighting Control Name
  ,                                       !- Fraction of Zone Controlled by Primary Daylighting Control
  ,                                       !- Secondary Daylighting Control Name
  ,                                       !- Fraction of Zone Controlled by Secondary Daylighting Control
  ,                                       !- Illuminance Map Name
  ,                                       !- Group Rendering Name
  ,                                       !- Thermostat Name
  No;                                     !- Use Ideal Air Loads

OS:Node,
  {799046f3-730a-4cf1-a72d-c31f53d4b23f}, !- Handle
  Node 2,                                 !- Name
  {0bc18ac1-239b-4493-8d25-c0e01f1d2b46}, !- Inlet Port
  ;                                       !- Outlet Port

OS:Connection,
  {0bc18ac1-239b-4493-8d25-c0e01f1d2b46}, !- Handle
  {a122cfdc-3950-40a1-86d5-d334a7c7afec}, !- Name
  {db635efe-7064-49d8-ab87-0188ecfcf304}, !- Source Object
  11,                                     !- Outlet Port
  {799046f3-730a-4cf1-a72d-c31f53d4b23f}, !- Target Object
  2;                                      !- Inlet Port

OS:PortList,
  {2010a30f-c197-443a-bba8-3c8fdf06b22c}, !- Handle
  {62bd0874-ce9b-4c91-9893-e3bfd6665e0e}, !- Name
  {db635efe-7064-49d8-ab87-0188ecfcf304}; !- HVAC Component

OS:PortList,
  {ef1d3abc-46ee-4fe5-8db7-3452ecea9b2b}, !- Handle
  {f4746bc6-c555-44a5-8eee-5055705910f5}, !- Name
  {db635efe-7064-49d8-ab87-0188ecfcf304}; !- HVAC Component

OS:PortList,
  {27392550-e131-4a25-a1a4-554c3845c090}, !- Handle
  {727d8699-ad8c-4406-84dd-e1e8eac837f4}, !- Name
  {db635efe-7064-49d8-ab87-0188ecfcf304}; !- HVAC Component

OS:Sizing:Zone,
  {5897deb4-9390-4b96-9ad1-9543a3bf8736}, !- Handle
  {db635efe-7064-49d8-ab87-0188ecfcf304}, !- Zone or ZoneList Name
  SupplyAirTemperature,                   !- Zone Cooling Design Supply Air Temperature Input Method
  14,                                     !- Zone Cooling Design Supply Air Temperature {C}
  11.11,                                  !- Zone Cooling Design Supply Air Temperature Difference {deltaC}
  SupplyAirTemperature,                   !- Zone Heating Design Supply Air Temperature Input Method
  40,                                     !- Zone Heating Design Supply Air Temperature {C}
  11.11,                                  !- Zone Heating Design Supply Air Temperature Difference {deltaC}
  0.0085,                                 !- Zone Cooling Design Supply Air Humidity Ratio {kg-H2O/kg-air}
  0.008,                                  !- Zone Heating Design Supply Air Humidity Ratio {kg-H2O/kg-air}
  ,                                       !- Zone Heating Sizing Factor
  ,                                       !- Zone Cooling Sizing Factor
  DesignDay,                              !- Cooling Design Air Flow Method
  ,                                       !- Cooling Design Air Flow Rate {m3/s}
  ,                                       !- Cooling Minimum Air Flow per Zone Floor Area {m3/s-m2}
  ,                                       !- Cooling Minimum Air Flow {m3/s}
  ,                                       !- Cooling Minimum Air Flow Fraction
  DesignDay,                              !- Heating Design Air Flow Method
  ,                                       !- Heating Design Air Flow Rate {m3/s}
  ,                                       !- Heating Maximum Air Flow per Zone Floor Area {m3/s-m2}
  ,                                       !- Heating Maximum Air Flow {m3/s}
  ,                                       !- Heating Maximum Air Flow Fraction
  ,                                       !- Design Zone Air Distribution Effectiveness in Cooling Mode
  ,                                       !- Design Zone Air Distribution Effectiveness in Heating Mode
  No,                                     !- Account for Dedicated Outdoor Air System
  NeutralSupplyAir,                       !- Dedicated Outdoor Air System Control Strategy
  autosize,                               !- Dedicated Outdoor Air Low Setpoint Temperature for Design {C}
  autosize;                               !- Dedicated Outdoor Air High Setpoint Temperature for Design {C}

OS:ZoneHVAC:EquipmentList,
  {13666451-2cea-40f6-bf01-303e324b0b49}, !- Handle
  Zone HVAC Equipment List 2,             !- Name
  {db635efe-7064-49d8-ab87-0188ecfcf304}; !- Thermal Zone

OS:Space,
  {cfe0c4e2-be75-4be8-a84c-42602524913d}, !- Handle
  garage space,                           !- Name
  {ca3f9739-6920-43ce-9fb5-b83cd9d80f88}, !- Space Type Name
  ,                                       !- Default Construction Set Name
  ,                                       !- Default Schedule Set Name
  -0,                                     !- Direction of Relative North {deg}
  0,                                      !- X Origin {m}
  0,                                      !- Y Origin {m}
  0,                                      !- Z Origin {m}
  ,                                       !- Building Story Name
  {db635efe-7064-49d8-ab87-0188ecfcf304}; !- Thermal Zone Name

OS:Surface,
  {5ea97622-9fb3-4f47-aa2a-a8f6a9808ff6}, !- Handle
  Surface 1,                              !- Name
  Floor,                                  !- Surface Type
  {9ddcf30e-4c94-4c6d-b57e-504d8f3606de}, !- Construction Name
  {cfe0c4e2-be75-4be8-a84c-42602524913d}, !- Space Name
  Foundation,                             !- Outside Boundary Condition
  {78226e1b-d66f-4fb9-8750-c82daccbcfa3}, !- Outside Boundary Condition Object
  NoSun,                                  !- Sun Exposure
  NoWind,                                 !- Wind Exposure
  ,                                       !- View Factor to Ground
  ,                                       !- Number of Vertices
  8.91701625975123, -3.048, 0,            !- X,Y,Z Vertex 1 {m}
  8.91701625975123, 3.048, 0,             !- X,Y,Z Vertex 2 {m}
  12.5746162597512, 3.048, 0,             !- X,Y,Z Vertex 3 {m}
  12.5746162597512, -3.048, 0;            !- X,Y,Z Vertex 4 {m}

OS:Surface,
  {1594655d-b6b4-4325-ae99-2f89e976b0f0}, !- Handle
  Surface 2,                              !- Name
  Wall,                                   !- Surface Type
  {fa2569a0-a798-48bb-90f8-7aa7455738ec}, !- Construction Name
  {cfe0c4e2-be75-4be8-a84c-42602524913d}, !- Space Name
  Surface,                                !- Outside Boundary Condition
  {f485693c-f2fa-4ea1-b8f6-6387344dd266}, !- Outside Boundary Condition Object
  NoSun,                                  !- Sun Exposure
  NoWind,                                 !- Wind Exposure
  ,                                       !- View Factor to Ground
  ,                                       !- Number of Vertices
  8.91701625975123, 3.048, 2.4384,        !- X,Y,Z Vertex 1 {m}
  8.91701625975123, 3.048, 0,             !- X,Y,Z Vertex 2 {m}
  8.91701625975123, 0, 0,                 !- X,Y,Z Vertex 3 {m}
  8.91701625975123, 0, 2.4384;            !- X,Y,Z Vertex 4 {m}

OS:Surface,
  {451a3861-96bb-4437-86c2-9dc240715b59}, !- Handle
  Surface 3,                              !- Name
  Wall,                                   !- Surface Type
  {fa2569a0-a798-48bb-90f8-7aa7455738ec}, !- Construction Name
  {cfe0c4e2-be75-4be8-a84c-42602524913d}, !- Space Name
  Surface,                                !- Outside Boundary Condition
  {63d15640-b896-4f44-a44c-f09efc802b04}, !- Outside Boundary Condition Object
  NoSun,                                  !- Sun Exposure
  NoWind,                                 !- Wind Exposure
  ,                                       !- View Factor to Ground
  ,                                       !- Number of Vertices
  12.5746162597512, 3.048, 2.4384,        !- X,Y,Z Vertex 1 {m}
  12.5746162597512, 3.048, 0,             !- X,Y,Z Vertex 2 {m}
  8.91701625975123, 3.048, 0,             !- X,Y,Z Vertex 3 {m}