!- NOTE: Auto-generated from /test/osw_files/SFD_2story_FB_UA_GRG_GSHP_ElecTanklessWH.osw

OS:Version,
  {8a3ebaaf-2e2b-4e7b-8db0-aaa7d9a67441}, !- Handle
  2.9.1;                                  !- Version Identifier

OS:SimulationControl,
  {ce5b8e90-c622-4897-a7ce-e1d6727bb83f}, !- Handle
  ,                                       !- Do Zone Sizing Calculation
  ,                                       !- Do System Sizing Calculation
  ,                                       !- Do Plant Sizing Calculation
  No;                                     !- Run Simulation for Sizing Periods

OS:Timestep,
  {287f8dcc-16fc-452c-8fd3-7add6b698d6d}, !- Handle
  6;                                      !- Number of Timesteps per Hour

OS:ShadowCalculation,
  {f5f618ce-b5eb-4eab-9974-cbc81e2082d9}, !- Handle
  20,                                     !- Calculation Frequency
  200;                                    !- Maximum Figures in Shadow Overlap Calculations

OS:SurfaceConvectionAlgorithm:Outside,
  {73a600e7-7d03-420e-a044-8a4853f80113}, !- Handle
  DOE-2;                                  !- Algorithm

OS:SurfaceConvectionAlgorithm:Inside,
  {57a4a2ca-7d76-4792-a446-af81e7a33637}, !- Handle
  TARP;                                   !- Algorithm

OS:ZoneCapacitanceMultiplier:ResearchSpecial,
  {bf2d7266-4ea9-4a58-a1fc-4e5f88b01974}, !- Handle
  ,                                       !- Temperature Capacity Multiplier
  15,                                     !- Humidity Capacity Multiplier
  ;                                       !- Carbon Dioxide Capacity Multiplier

OS:RunPeriod,
  {327f5977-c4bf-4200-af53-583764f0e81e}, !- Handle
  Run Period 1,                           !- Name
  1,                                      !- Begin Month
  1,                                      !- Begin Day of Month
  12,                                     !- End Month
  31,                                     !- End Day of Month
  ,                                       !- Use Weather File Holidays and Special Days
  ,                                       !- Use Weather File Daylight Saving Period
  ,                                       !- Apply Weekend Holiday Rule
  ,                                       !- Use Weather File Rain Indicators
  ,                                       !- Use Weather File Snow Indicators
  ;                                       !- Number of Times Runperiod to be Repeated

OS:YearDescription,
  {52fc500a-9af4-476b-b3d3-2252004a286b}, !- Handle
  2007,                                   !- Calendar Year
  ,                                       !- Day of Week for Start Day
  ;                                       !- Is Leap Year

OS:WeatherFile,
  {aaf0c73d-b565-42d0-8ce5-19341e2c4b2e}, !- Handle
  Denver Intl Ap,                         !- City
  CO,                                     !- State Province Region
  USA,                                    !- Country
  TMY3,                                   !- Data Source
  725650,                                 !- WMO Number
  39.83,                                  !- Latitude {deg}
  -104.65,                                !- Longitude {deg}
  -7,                                     !- Time Zone {hr}
  1650,                                   !- Elevation {m}
  file:../weather/USA_CO_Denver.Intl.AP.725650_TMY3.epw, !- Url
  E23378AA;                               !- Checksum

OS:AdditionalProperties,
  {0445be8b-3abe-4022-832f-0fed617041b3}, !- Handle
  {aaf0c73d-b565-42d0-8ce5-19341e2c4b2e}, !- Object Name
  EPWHeaderCity,                          !- Feature Name 1
  String,                                 !- Feature Data Type 1
  Denver Intl Ap,                         !- Feature Value 1
  EPWHeaderState,                         !- Feature Name 2
  String,                                 !- Feature Data Type 2
  CO,                                     !- Feature Value 2
  EPWHeaderCountry,                       !- Feature Name 3
  String,                                 !- Feature Data Type 3
  USA,                                    !- Feature Value 3
  EPWHeaderDataSource,                    !- Feature Name 4
  String,                                 !- Feature Data Type 4
  TMY3,                                   !- Feature Value 4
  EPWHeaderStation,                       !- Feature Name 5
  String,                                 !- Feature Data Type 5
  725650,                                 !- Feature Value 5
  EPWHeaderLatitude,                      !- Feature Name 6
  Double,                                 !- Feature Data Type 6
  39.829999999999998,                     !- Feature Value 6
  EPWHeaderLongitude,                     !- Feature Name 7
  Double,                                 !- Feature Data Type 7
  -104.65000000000001,                    !- Feature Value 7
  EPWHeaderTimezone,                      !- Feature Name 8
  Double,                                 !- Feature Data Type 8
  -7,                                     !- Feature Value 8
  EPWHeaderAltitude,                      !- Feature Name 9
  Double,                                 !- Feature Data Type 9
  5413.3858267716532,                     !- Feature Value 9
  EPWHeaderLocalPressure,                 !- Feature Name 10
  Double,                                 !- Feature Data Type 10
  0.81937567683596546,                    !- Feature Value 10
  EPWHeaderRecordsPerHour,                !- Feature Name 11
  Double,                                 !- Feature Data Type 11
  0,                                      !- Feature Value 11
  EPWDataAnnualAvgDrybulb,                !- Feature Name 12
  Double,                                 !- Feature Data Type 12
  51.575616438356228,                     !- Feature Value 12
  EPWDataAnnualMinDrybulb,                !- Feature Name 13
  Double,                                 !- Feature Data Type 13
  -2.9200000000000017,                    !- Feature Value 13
  EPWDataAnnualMaxDrybulb,                !- Feature Name 14
  Double,                                 !- Feature Data Type 14
  104,                                    !- Feature Value 14
  EPWDataCDD50F,                          !- Feature Name 15
  Double,                                 !- Feature Data Type 15
  3072.2925000000005,                     !- Feature Value 15
  EPWDataCDD65F,                          !- Feature Name 16
  Double,                                 !- Feature Data Type 16
  883.62000000000035,                     !- Feature Value 16
  EPWDataHDD50F,                          !- Feature Name 17
  Double,                                 !- Feature Data Type 17
  2497.1925000000001,                     !- Feature Value 17
  EPWDataHDD65F,                          !- Feature Name 18
  Double,                                 !- Feature Data Type 18
  5783.5200000000013,                     !- Feature Value 18
  EPWDataAnnualAvgWindspeed,              !- Feature Name 19
  Double,                                 !- Feature Data Type 19
  3.9165296803649667,                     !- Feature Value 19
  EPWDataMonthlyAvgDrybulbs,              !- Feature Name 20
  String,                                 !- Feature Data Type 20
  33.4191935483871&#4431.90142857142857&#4443.02620967741937&#4442.48624999999999&#4459.877741935483854&#4473.57574999999997&#4472.07975806451608&#4472.70008064516134&#4466.49200000000006&#4450.079112903225806&#4437.218250000000005&#4434.582177419354835, !- Feature Value 20
  EPWDataGroundMonthlyTemps,              !- Feature Name 21
  String,                                 !- Feature Data Type 21
  44.08306285945173&#4440.89570904991865&#4440.64045432632048&#4442.153016571250646&#4448.225111118704206&#4454.268919273837525&#4459.508577937551024&#4462.82777283423508&#4463.10975667174995&#4460.41014950381947&#4455.304105212311526&#4449.445696474514364, !- Feature Value 21
  EPWDataWSF,                             !- Feature Name 22
  Double,                                 !- Feature Data Type 22
  0.58999999999999997,                    !- Feature Value 22
  EPWDataMonthlyAvgDailyHighDrybulbs,     !- Feature Name 23
  String,                                 !- Feature Data Type 23
  47.41032258064516&#4446.58642857142857&#4455.15032258064517&#4453.708&#4472.80193548387098&#4488.67600000000002&#4486.1858064516129&#4485.87225806451613&#4482.082&#4463.18064516129033&#4448.73400000000001&#4448.87935483870968, !- Feature Value 23
  EPWDataMonthlyAvgDailyLowDrybulbs,      !- Feature Name 24
  String,                                 !- Feature Data Type 24
  19.347741935483874&#4419.856428571428573&#4430.316129032258065&#4431.112&#4447.41612903225806&#4457.901999999999994&#4459.063870967741934&#4460.956774193548384&#4452.352000000000004&#4438.41612903225806&#4427.002000000000002&#4423.02903225806451, !- Feature Value 24
  EPWDesignHeatingDrybulb,                !- Feature Name 25
  Double,                                 !- Feature Data Type 25
  12.02,                                  !- Feature Value 25
  EPWDesignHeatingWindspeed,              !- Feature Name 26
  Double,                                 !- Feature Data Type 26
  2.8062500000000004,                     !- Feature Value 26
  EPWDesignCoolingDrybulb,                !- Feature Name 27
  Double,                                 !- Feature Data Type 27
  91.939999999999998,                     !- Feature Value 27
  EPWDesignCoolingWetbulb,                !- Feature Name 28
  Double,                                 !- Feature Data Type 28
  59.95131430195849,                      !- Feature Value 28
  EPWDesignCoolingHumidityRatio,          !- Feature Name 29
  Double,                                 !- Feature Data Type 29
  0.0059161086834698092,                  !- Feature Value 29
  EPWDesignCoolingWindspeed,              !- Feature Name 30
  Double,                                 !- Feature Data Type 30
  3.7999999999999989,                     !- Feature Value 30
  EPWDesignDailyTemperatureRange,         !- Feature Name 31
  Double,                                 !- Feature Data Type 31
  24.915483870967748,                     !- Feature Value 31
  EPWDesignDehumidDrybulb,                !- Feature Name 32
  Double,                                 !- Feature Data Type 32
  67.996785714285721,                     !- Feature Value 32
  EPWDesignDehumidHumidityRatio,          !- Feature Name 33
  Double,                                 !- Feature Data Type 33
  0.012133744170488724,                   !- Feature Value 33
  EPWDesignCoolingDirectNormal,           !- Feature Name 34
  Double,                                 !- Feature Data Type 34
  985,                                    !- Feature Value 34
  EPWDesignCoolingDiffuseHorizontal,      !- Feature Name 35
  Double,                                 !- Feature Data Type 35
  84;                                     !- Feature Value 35

OS:Site,
  {d5b1c1be-4ac2-4254-aad2-bd54c9523df1}, !- Handle
  Denver Intl Ap_CO_USA,                  !- Name
  39.83,                                  !- Latitude {deg}
  -104.65,                                !- Longitude {deg}
  -7,                                     !- Time Zone {hr}
  1650,                                   !- Elevation {m}
  Suburbs;                                !- Terrain

OS:ClimateZones,
  {37d5d9d2-0f9c-429e-9d79-e9068e9dac4e}, !- Handle
  ,                                       !- Active Institution
  ,                                       !- Active Year
  ,                                       !- Climate Zone Institution Name 1
  ,                                       !- Climate Zone Document Name 1
  ,                                       !- Climate Zone Document Year 1
  ,                                       !- Climate Zone Value 1
  Building America,                       !- Climate Zone Institution Name 2
  ,                                       !- Climate Zone Document Name 2
  0,                                      !- Climate Zone Document Year 2
  Cold;                                   !- Climate Zone Value 2

OS:Site:WaterMainsTemperature,
  {cdbfa893-bb8e-4abd-b1ea-738ca7d03b76}, !- Handle
  Correlation,                            !- Calculation Method
  ,                                       !- Temperature Schedule Name
  10.8753424657535,                       !- Annual Average Outdoor Air Temperature {C}
  23.1524007936508;                       !- Maximum Difference In Monthly Average Outdoor Air Temperatures {deltaC}

OS:RunPeriodControl:DaylightSavingTime,
  {55d9fbd6-6389-4b44-ab5c-b8c2e73188d9}, !- Handle
  4/7,                                    !- Start Date
  10/26;                                  !- End Date

OS:Site:GroundTemperature:Deep,
  {258e91ba-757d-4398-b494-db0db4e8f866}, !- Handle
  10.8753424657535,                       !- January Deep Ground Temperature {C}
  10.8753424657535,                       !- February Deep Ground Temperature {C}
  10.8753424657535,                       !- March Deep Ground Temperature {C}
  10.8753424657535,                       !- April Deep Ground Temperature {C}
  10.8753424657535,                       !- May Deep Ground Temperature {C}
  10.8753424657535,                       !- June Deep Ground Temperature {C}
  10.8753424657535,                       !- July Deep Ground Temperature {C}
  10.8753424657535,                       !- August Deep Ground Temperature {C}
  10.8753424657535,                       !- September Deep Ground Temperature {C}
  10.8753424657535,                       !- October Deep Ground Temperature {C}
  10.8753424657535,                       !- November Deep Ground Temperature {C}
  10.8753424657535;                       !- December Deep Ground Temperature {C}

OS:ThermalZone,
  {8dc23c0f-f84d-4623-874c-5d82e483773a}, !- Handle
  living zone,                            !- Name
  ,                                       !- Multiplier
  ,                                       !- Ceiling Height {m}
  ,                                       !- Volume {m3}
  ,                                       !- Floor Area {m2}
  ,                                       !- Zone Inside Convection Algorithm
  ,                                       !- Zone Outside Convection Algorithm
  ,                                       !- Zone Conditioning Equipment List Name
  {c3a22608-0fa3-40d6-bc29-dfd05ebff4a0}, !- Zone Air Inlet Port List
  {af59f54f-3d92-478d-81a3-67a855eb35ff}, !- Zone Air Exhaust Port List
  {e0734a81-2159-47ad-9690-479c80d72861}, !- Zone Air Node Name
  {d140e6ef-805b-414c-ad57-411b0b961b06}, !- Zone Return Air Port List
  ,                                       !- Primary Daylighting Control Name
  ,                                       !- Fraction of Zone Controlled by Primary Daylighting Control
  ,                                       !- Secondary Daylighting Control Name
  ,                                       !- Fraction of Zone Controlled by Secondary Daylighting Control
  ,                                       !- Illuminance Map Name
  ,                                       !- Group Rendering Name
  {fa6b8f28-8e20-41b3-ac84-a2a3a98d9ff8}, !- Thermostat Name
  No;                                     !- Use Ideal Air Loads

OS:Node,
  {5876fbd3-8dd1-40f1-a003-53ba24339d09}, !- Handle
  Node 1,                                 !- Name
  {e0734a81-2159-47ad-9690-479c80d72861}, !- Inlet Port
  ;                                       !- Outlet Port

OS:Connection,
  {e0734a81-2159-47ad-9690-479c80d72861}, !- Handle
  {e4884b88-40db-4867-9a9c-e68fb22915d8}, !- Name
  {8dc23c0f-f84d-4623-874c-5d82e483773a}, !- Source Object
  11,                                     !- Outlet Port
  {5876fbd3-8dd1-40f1-a003-53ba24339d09}, !- Target Object
  2;                                      !- Inlet Port

OS:PortList,
  {c3a22608-0fa3-40d6-bc29-dfd05ebff4a0}, !- Handle
  {81334a74-9a2a-48bf-9353-1c75ef8e6f11}, !- Name
  {8dc23c0f-f84d-4623-874c-5d82e483773a}, !- HVAC Component
  {f93da8f3-c1f5-4c0e-8f8c-22f844a8f383}, !- Port 1
  {e2eb66e3-cf8e-4a18-a538-43f9dd7f3308}; !- Port 2

OS:PortList,
  {af59f54f-3d92-478d-81a3-67a855eb35ff}, !- Handle
  {a2994f0d-7fa3-429b-8453-602fda1b7ba8}, !- Name
  {8dc23c0f-f84d-4623-874c-5d82e483773a}; !- HVAC Component

OS:PortList,
  {d140e6ef-805b-414c-ad57-411b0b961b06}, !- Handle
  {2bbc681e-5da3-4c0b-a031-a81e3e8c99cb}, !- Name
  {8dc23c0f-f84d-4623-874c-5d82e483773a}, !- HVAC Component
  {ac45e2f0-7d12-4a19-ad90-9c322d9506b8}, !- Port 1
  {f74022e0-91cc-4508-8b4e-f5dbc3a5f0cf}; !- Port 2

OS:Sizing:Zone,
  {d8ded796-fa13-444a-852d-0a867892f959}, !- Handle
  {8dc23c0f-f84d-4623-874c-5d82e483773a}, !- Zone or ZoneList Name
  SupplyAirTemperature,                   !- Zone Cooling Design Supply Air Temperature Input Method
  14,                                     !- Zone Cooling Design Supply Air Temperature {C}
  11.11,                                  !- Zone Cooling Design Supply Air Temperature Difference {deltaC}
  SupplyAirTemperature,                   !- Zone Heating Design Supply Air Temperature Input Method
  40,                                     !- Zone Heating Design Supply Air Temperature {C}
  11.11,                                  !- Zone Heating Design Supply Air Temperature Difference {deltaC}
  0.0085,                                 !- Zone Cooling Design Supply Air Humidity Ratio {kg-H2O/kg-air}
  0.008,                                  !- Zone Heating Design Supply Air Humidity Ratio {kg-H2O/kg-air}
  ,                                       !- Zone Heating Sizing Factor
  ,                                       !- Zone Cooling Sizing Factor
  DesignDay,                              !- Cooling Design Air Flow Method
  ,                                       !- Cooling Design Air Flow Rate {m3/s}
  ,                                       !- Cooling Minimum Air Flow per Zone Floor Area {m3/s-m2}
  ,                                       !- Cooling Minimum Air Flow {m3/s}
  ,                                       !- Cooling Minimum Air Flow Fraction
  DesignDay,                              !- Heating Design Air Flow Method
  ,                                       !- Heating Design Air Flow Rate {m3/s}
  ,                                       !- Heating Maximum Air Flow per Zone Floor Area {m3/s-m2}
  ,                                       !- Heating Maximum Air Flow {m3/s}
  ,                                       !- Heating Maximum Air Flow Fraction
  ,                                       !- Design Zone Air Distribution Effectiveness in Cooling Mode
  ,                                       !- Design Zone Air Distribution Effectiveness in Heating Mode
  No,                                     !- Account for Dedicated Outdoor Air System
  NeutralSupplyAir,                       !- Dedicated Outdoor Air System Control Strategy
  autosize,                               !- Dedicated Outdoor Air Low Setpoint Temperature for Design {C}
  autosize;                               !- Dedicated Outdoor Air High Setpoint Temperature for Design {C}

OS:ZoneHVAC:EquipmentList,
  {2142c6e9-43b5-4fe1-bfb0-28f3d8e3f562}, !- Handle
  Zone HVAC Equipment List 1,             !- Name
  {8dc23c0f-f84d-4623-874c-5d82e483773a}, !- Thermal Zone
  SequentialLoad,                         !- Load Distribution Scheme
  {30aef5fa-a21e-444e-95f7-a0333b44c747}, !- Zone Equipment 1
  1,                                      !- Zone Equipment Cooling Sequence 1
  1,                                      !- Zone Equipment Heating or No-Load Sequence 1
  ,                                       !- Zone Equipment Sequential Cooling Fraction Schedule Name 1
  ,                                       !- Zone Equipment Sequential Heating Fraction Schedule Name 1
  {6d0dc235-5026-4abf-b7f4-904678455845}, !- Zone Equipment 2
  2,                                      !- Zone Equipment Cooling Sequence 2
  2,                                      !- Zone Equipment Heating or No-Load Sequence 2
  ,                                       !- Zone Equipment Sequential Cooling Fraction Schedule Name 2
  ;                                       !- Zone Equipment Sequential Heating Fraction Schedule Name 2

OS:ThermalZone,
  {3b049283-39f9-4a54-9dd7-d6c1f4ea8983}, !- Handle
  garage zone,                            !- Name
  ,                                       !- Multiplier
  ,                                       !- Ceiling Height {m}
  ,                                       !- Volume {m3}
  ,                                       !- Floor Area {m2}
  ,                                       !- Zone Inside Convection Algorithm
  ,                                       !- Zone Outside Convection Algorithm
  ,                                       !- Zone Conditioning Equipment List Name
  {d96ea7a7-ca6f-4f18-b6ea-660977c19801}, !- Zone Air Inlet Port List
  {01de40c6-d40c-4b5e-8061-663247391d4b}, !- Zone Air Exhaust Port List
  {c15b7561-38e3-408a-9b34-4793e0d9fe26}, !- Zone Air Node Name
  {be74920e-34b1-4bdd-80a3-9d3d57541221}, !- Zone Return Air Port List
  ,                                       !- Primary Daylighting Control Name
  ,                                       !- Fraction of Zone Controlled by Primary Daylighting Control
  ,                                       !- Secondary Daylighting Control Name
  ,                                       !- Fraction of Zone Controlled by Secondary Daylighting Control
  ,                                       !- Illuminance Map Name
  ,                                       !- Group Rendering Name
  ,                                       !- Thermostat Name
  No;                                     !- Use Ideal Air Loads

OS:Node,
  {7bff9005-4c4d-4711-bdcc-633eb41bfaa9}, !- Handle
  Node 2,                                 !- Name
  {c15b7561-38e3-408a-9b34-4793e0d9fe26}, !- Inlet Port
  ;                                       !- Outlet Port

OS:Connection,
  {c15b7561-38e3-408a-9b34-4793e0d9fe26}, !- Handle
  {f8d39636-1982-46b9-85c5-d86717bf5c4b}, !- Name
  {3b049283-39f9-4a54-9dd7-d6c1f4ea8983}, !- Source Object
  11,                                     !- Outlet Port
  {7bff9005-4c4d-4711-bdcc-633eb41bfaa9}, !- Target Object
  2;                                      !- Inlet Port

OS:PortList,
  {d96ea7a7-ca6f-4f18-b6ea-660977c19801}, !- Handle
  {7e4df0d7-76ff-4529-aea7-a327f8d91a39}, !- Name
  {3b049283-39f9-4a54-9dd7-d6c1f4ea8983}; !- HVAC Component

OS:PortList,
  {01de40c6-d40c-4b5e-8061-663247391d4b}, !- Handle
  {b7929452-0871-4dc5-88c9-a6f2c69ad19d}, !- Name
  {3b049283-39f9-4a54-9dd7-d6c1f4ea8983}; !- HVAC Component

OS:PortList,
  {be74920e-34b1-4bdd-80a3-9d3d57541221}, !- Handle
  {14ea3fb7-54e1-4f8b-879c-f735ffa2225c}, !- Name
  {3b049283-39f9-4a54-9dd7-d6c1f4ea8983}; !- HVAC Component

OS:Sizing:Zone,
  {9485c8cc-4828-4c56-bb7c-f5061a972e2e}, !- Handle
  {3b049283-39f9-4a54-9dd7-d6c1f4ea8983}, !- Zone or ZoneList Name
  SupplyAirTemperature,                   !- Zone Cooling Design Supply Air Temperature Input Method
  14,                                     !- Zone Cooling Design Supply Air Temperature {C}
  11.11,                                  !- Zone Cooling Design Supply Air Temperature Difference {deltaC}
  SupplyAirTemperature,                   !- Zone Heating Design Supply Air Temperature Input Method
  40,                                     !- Zone Heating Design Supply Air Temperature {C}
  11.11,                                  !- Zone Heating Design Supply Air Temperature Difference {deltaC}
  0.0085,                                 !- Zone Cooling Design Supply Air Humidity Ratio {kg-H2O/kg-air}
  0.008,                                  !- Zone Heating Design Supply Air Humidity Ratio {kg-H2O/kg-air}
  ,                                       !- Zone Heating Sizing Factor
  ,                                       !- Zone Cooling Sizing Factor
  DesignDay,                              !- Cooling Design Air Flow Method
  ,                                       !- Cooling Design Air Flow Rate {m3/s}
  ,                                       !- Cooling Minimum Air Flow per Zone Floor Area {m3/s-m2}
  ,                                       !- Cooling Minimum Air Flow {m3/s}
  ,                                       !- Cooling Minimum Air Flow Fraction
  DesignDay,                              !- Heating Design Air Flow Method
  ,                                       !- Heating Design Air Flow Rate {m3/s}
  ,                                       !- Heating Maximum Air Flow per Zone Floor Area {m3/s-m2}
  ,                                       !- Heating Maximum Air Flow {m3/s}
  ,                                       !- Heating Maximum Air Flow Fraction
  ,                                       !- Design Zone Air Distribution Effectiveness in Cooling Mode
  ,                                       !- Design Zone Air Distribution Effectiveness in Heating Mode
  No,                                     !- Account for Dedicated Outdoor Air System
  NeutralSupplyAir,                       !- Dedicated Outdoor Air System Control Strategy
  autosize,                               !- Dedicated Outdoor Air Low Setpoint Temperature for Design {C}
  autosize;                               !- Dedicated Outdoor Air High Setpoint Temperature for Design {C}

OS:ZoneHVAC:EquipmentList,
  {ae8b6efb-5318-4414-bee9-bdc88032b766}, !- Handle
  Zone HVAC Equipment List 2,             !- Name
  {3b049283-39f9-4a54-9dd7-d6c1f4ea8983}; !- Thermal Zone

OS:Space,
  {6ccee33f-dd03-4d42-88ed-0858c932c5e1}, !- Handle
  garage space,                           !- Name
  {a606cb64-35cf-4073-aab8-0c885d935707}, !- Space Type Name
  ,                                       !- Default Construction Set Name
  ,                                       !- Default Schedule Set Name
  -0,                                     !- Direction of Relative North {deg}
  0,                                      !- X Origin {m}
  0,                                      !- Y Origin {m}
  0,                                      !- Z Origin {m}
  ,                                       !- Building Story Name
  {3b049283-39f9-4a54-9dd7-d6c1f4ea8983}; !- Thermal Zone Name

OS:Surface,
  {559b1905-5d81-45d6-95cc-3a66384b612a}, !- Handle
  Surface 1,                              !- Name
  Floor,                                  !- Surface Type
  {2ec73b18-e08b-40cf-b689-7804c1fbc585}, !- Construction Name
  {6ccee33f-dd03-4d42-88ed-0858c932c5e1}, !- Space Name
  Foundation,                             !- Outside Boundary Condition
  {a825bf82-3da9-475d-b99d-a709a5efefce}, !- Outside Boundary Condition Object
  NoSun,                                  !- Sun Exposure
  NoWind,                                 !- Wind Exposure
  ,                                       !- View Factor to Ground
  ,                                       !- Number of Vertices
  12.4316830995045, -3.6576, 0,           !- X,Y,Z Vertex 1 {m}
  12.4316830995045, 3.6576, 0,            !- X,Y,Z Vertex 2 {m}
  16.0892830995045, 3.6576, 0,            !- X,Y,Z Vertex 3 {m}
  16.0892830995045, -3.6576, 0;           !- X,Y,Z Vertex 4 {m}

OS:Surface,
  {17e57f4f-c0b8-49a8-aa91-af409a1bbf4b}, !- Handle
  Surface 2,                              !- Name
  Wall,                                   !- Surface Type
  {39163bf6-926e-49ab-8d74-d9b387a43afc}, !- Construction Name
  {6ccee33f-dd03-4d42-88ed-0858c932c5e1}, !- Space Name
  Surface,                                !- Outside Boundary Condition
  {ed0f21cd-0215-45f0-823b-c3e1cc868e26}, !- Outside Boundary Condition Object
  NoSun,                                  !- Sun Exposure
  NoWind,                                 !- Wind Exposure
  ,                                       !- View Factor to Ground
  ,                                       !- Number of Vertices
  12.4316830995045, 3.6576, 2.4384,       !- X,Y,Z Vertex 1 {m}
  12.4316830995045, 3.6576, 0,            !- X,Y,Z Vertex 2 {m}
  12.4316830995045, 0, 0,                 !- X,Y,Z Vertex 3 {m}
  12.4316830995045, 0, 2.4384;            !- X,Y,Z Vertex 4 {m}

OS:Surface,
  {5f653b21-7eec-4009-b719-0e9c708a2652}, !- Handle
  Surface 3,                              !- Name
  Wall,                                   !- Surface Type
  {39163bf6-926e-49ab-8d74-d9b387a43afc}, !- Construction Name
  {6ccee33f-dd03-4d42-88ed-0858c932c5e1}, !- Space Name
  Surface,                                !- Outside Boundary Condition
  {fc14d9f2-bcd7-4bbe-8085-dbf2caaf1a97}, !- Outside Boundary Condition Object
  NoSun,                                  !- Sun Exposure
  NoWind,                                 !- Wind Exposure
  ,                                       !- View Factor to Ground
  ,                                       !- Number of Vertices
  16.0892830995045, 3.6576, 2.4384,       !- X,Y,Z Vertex 1 {m}
  16.0892830995045, 3.6576, 0,            !- X,Y,Z Vertex 2 {m}
  12.4316830995045, 3.6576, 0,            !- X,Y,Z Vertex 3 {m}
  12.4316830995045, 3.6576, 2.4384;       !- X,Y,Z Vertex 4 {m}

OS:Surface,
  {ed6a4586-a2c7-40e5-b235-04a09aca66a0}, !- Handle
  Surface 4,                              !- Name
  Wall,                                   !- Surface Type
  {8774b13a-16ed-4c6e-99d9-9395ba188f47}, !- Construction Name
  {6ccee33f-dd03-4d42-88ed-0858c932c5e1}, !- Space Name
  Outdoors,                               !- Outside Boundary Condition
  ,                                       !- Outside Boundary Condition Object
  SunExposed,                             !- Sun Exposure
  WindExposed,                            !- Wind Exposure
  ,                                       !- View Factor to Ground
  ,                                       !- Number of Vertices
  16.0892830995045, -3.6576, 2.4384,      !- X,Y,Z Vertex 1 {m}
  16.0892830995045, -3.6576, 0,           !- X,Y,Z Vertex 2 {m}