!- NOTE: Auto-generated from /test/osw_files/SFD_HVACSizing_Equip_GF_Autosize.osw

OS:Version,
  {e3335ce2-fec1-4312-b4ad-36bc8c51bf11}, !- Handle
  3.0.1;                                  !- Version Identifier

OS:SimulationControl,
  {d6f4e815-5970-4ae7-9a88-e265692be0e6}, !- Handle
  ,                                       !- Do Zone Sizing Calculation
  ,                                       !- Do System Sizing Calculation
  ,                                       !- Do Plant Sizing Calculation
  No;                                     !- Run Simulation for Sizing Periods

OS:Timestep,
  {32fd4d02-3c82-42a4-9397-7b4096d142f9}, !- Handle
  6;                                      !- Number of Timesteps per Hour

OS:ShadowCalculation,
  {b88665c2-b39e-4c42-aa26-b2faaae2a3e5}, !- Handle
  PolygonClipping,                        !- Shading Calculation Method
  ,                                       !- Shading Calculation Update Frequency Method
  20,                                     !- Shading Calculation Update Frequency
  15000,                                  !- Maximum Figures in Shadow Overlap Calculations
  ,                                       !- Polygon Clipping Algorithm
  512,                                    !- Pixel Counting Resolution
  ,                                       !- Sky Diffuse Modeling Algorithm
  No,                                     !- Output External Shading Calculation Results
  No,                                     !- Disable Self-Shading Within Shading Zone Groups
  No;                                     !- Disable Self-Shading From Shading Zone Groups to Other Zones

OS:WeatherFile,
  {7e15a2f8-3aad-42da-b0a8-4d034c64f198}, !- Handle
  Denver Intl Ap,                         !- City
  CO,                                     !- State Province Region
  USA,                                    !- Country
  TMY3,                                   !- Data Source
  725650,                                 !- WMO Number
  39.83,                                  !- Latitude {deg}
  -104.65,                                !- Longitude {deg}
  -7,                                     !- Time Zone {hr}
  1650,                                   !- Elevation {m}
  C:/OpenStudio/OpenStudio-BuildStock/resources/measures/HPXMLtoOpenStudio/weather/USA_CO_Denver.Intl.AP.725650_TMY3.epw, !- Url
  E23378AA;                               !- Checksum

OS:AdditionalProperties,
  {3a4088fb-a044-49d0-8c90-41624c1502ef}, !- Handle
  {7e15a2f8-3aad-42da-b0a8-4d034c64f198}, !- Object Name
  EPWHeaderCity,                          !- Feature Name 1
  String,                                 !- Feature Data Type 1
  Denver Intl Ap,                         !- Feature Value 1
  EPWHeaderState,                         !- Feature Name 2
  String,                                 !- Feature Data Type 2
  CO,                                     !- Feature Value 2
  EPWHeaderCountry,                       !- Feature Name 3
  String,                                 !- Feature Data Type 3
  USA,                                    !- Feature Value 3
  EPWHeaderDataSource,                    !- Feature Name 4
  String,                                 !- Feature Data Type 4
  TMY3,                                   !- Feature Value 4
  EPWHeaderStation,                       !- Feature Name 5
  String,                                 !- Feature Data Type 5
  725650,                                 !- Feature Value 5
  EPWHeaderLatitude,                      !- Feature Name 6
  Double,                                 !- Feature Data Type 6
  39.829999999999998,                     !- Feature Value 6
  EPWHeaderLongitude,                     !- Feature Name 7
  Double,                                 !- Feature Data Type 7
  -104.65000000000001,                    !- Feature Value 7
  EPWHeaderTimezone,                      !- Feature Name 8
  Double,                                 !- Feature Data Type 8
  -7,                                     !- Feature Value 8
  EPWHeaderAltitude,                      !- Feature Name 9
  Double,                                 !- Feature Data Type 9
  5413.3858267716532,                     !- Feature Value 9
  EPWHeaderLocalPressure,                 !- Feature Name 10
  Double,                                 !- Feature Data Type 10
  0.81937567683596546,                    !- Feature Value 10
  EPWHeaderRecordsPerHour,                !- Feature Name 11
  Double,                                 !- Feature Data Type 11
  0,                                      !- Feature Value 11
  EPWDataAnnualAvgDrybulb,                !- Feature Name 12
  Double,                                 !- Feature Data Type 12
  51.575616438356228,                     !- Feature Value 12
  EPWDataAnnualMinDrybulb,                !- Feature Name 13
  Double,                                 !- Feature Data Type 13
  -2.9200000000000017,                    !- Feature Value 13
  EPWDataAnnualMaxDrybulb,                !- Feature Name 14
  Double,                                 !- Feature Data Type 14
  104,                                    !- Feature Value 14
  EPWDataCDD50F,                          !- Feature Name 15
  Double,                                 !- Feature Data Type 15
  3072.2925000000005,                     !- Feature Value 15
  EPWDataCDD65F,                          !- Feature Name 16
  Double,                                 !- Feature Data Type 16
  883.62000000000035,                     !- Feature Value 16
  EPWDataHDD50F,                          !- Feature Name 17
  Double,                                 !- Feature Data Type 17
  2497.1925000000001,                     !- Feature Value 17
  EPWDataHDD65F,                          !- Feature Name 18
  Double,                                 !- Feature Data Type 18
  5783.5200000000013,                     !- Feature Value 18
  EPWDataAnnualAvgWindspeed,              !- Feature Name 19
  Double,                                 !- Feature Data Type 19
  3.9165296803649667,                     !- Feature Value 19
  EPWDataMonthlyAvgDrybulbs,              !- Feature Name 20
  String,                                 !- Feature Data Type 20
  33.4191935483871&#4431.90142857142857&#4443.02620967741937&#4442.48624999999999&#4459.877741935483854&#4473.57574999999997&#4472.07975806451608&#4472.70008064516134&#4466.49200000000006&#4450.079112903225806&#4437.218250000000005&#4434.582177419354835, !- Feature Value 20
  EPWDataGroundMonthlyTemps,              !- Feature Name 21
  String,                                 !- Feature Data Type 21
  44.08306285945173&#4440.89570904991865&#4440.64045432632048&#4442.153016571250646&#4448.225111118704206&#4454.268919273837525&#4459.508577937551024&#4462.82777283423508&#4463.10975667174995&#4460.41014950381947&#4455.304105212311526&#4449.445696474514364, !- Feature Value 21
  EPWDataWSF,                             !- Feature Name 22
  Double,                                 !- Feature Data Type 22
  0.58999999999999997,                    !- Feature Value 22
  EPWDataMonthlyAvgDailyHighDrybulbs,     !- Feature Name 23
  String,                                 !- Feature Data Type 23
  47.41032258064516&#4446.58642857142857&#4455.15032258064517&#4453.708&#4472.80193548387098&#4488.67600000000002&#4486.1858064516129&#4485.87225806451613&#4482.082&#4463.18064516129033&#4448.73400000000001&#4448.87935483870968, !- Feature Value 23
  EPWDataMonthlyAvgDailyLowDrybulbs,      !- Feature Name 24
  String,                                 !- Feature Data Type 24
  19.347741935483874&#4419.856428571428573&#4430.316129032258065&#4431.112&#4447.41612903225806&#4457.901999999999994&#4459.063870967741934&#4460.956774193548384&#4452.352000000000004&#4438.41612903225806&#4427.002000000000002&#4423.02903225806451, !- Feature Value 24
  EPWDesignHeatingDrybulb,                !- Feature Name 25
  Double,                                 !- Feature Data Type 25
  12.02,                                  !- Feature Value 25
  EPWDesignHeatingWindspeed,              !- Feature Name 26
  Double,                                 !- Feature Data Type 26
  2.8062500000000004,                     !- Feature Value 26
  EPWDesignCoolingDrybulb,                !- Feature Name 27
  Double,                                 !- Feature Data Type 27
  91.939999999999998,                     !- Feature Value 27
  EPWDesignCoolingWetbulb,                !- Feature Name 28
  Double,                                 !- Feature Data Type 28
  59.95131430195849,                      !- Feature Value 28
  EPWDesignCoolingHumidityRatio,          !- Feature Name 29
  Double,                                 !- Feature Data Type 29
  0.0059161086834698092,                  !- Feature Value 29
  EPWDesignCoolingWindspeed,              !- Feature Name 30
  Double,                                 !- Feature Data Type 30
  3.7999999999999989,                     !- Feature Value 30
  EPWDesignDailyTemperatureRange,         !- Feature Name 31
  Double,                                 !- Feature Data Type 31
  24.915483870967748,                     !- Feature Value 31
  EPWDesignDehumidDrybulb,                !- Feature Name 32
  Double,                                 !- Feature Data Type 32
  67.996785714285721,                     !- Feature Value 32
  EPWDesignDehumidHumidityRatio,          !- Feature Name 33
  Double,                                 !- Feature Data Type 33
  0.012133744170488724,                   !- Feature Value 33
  EPWDesignCoolingDirectNormal,           !- Feature Name 34
  Double,                                 !- Feature Data Type 34
  985,                                    !- Feature Value 34
  EPWDesignCoolingDiffuseHorizontal,      !- Feature Name 35
  Double,                                 !- Feature Data Type 35
  84;                                     !- Feature Value 35

OS:YearDescription,
  {f315b81c-cc49-4b9f-9b64-5b7027257843}; !- Handle

OS:Site,
  {39d43935-baeb-42c6-9f43-c182f46b1259}, !- Handle
  Denver Intl Ap_CO_USA,                  !- Name
  39.83,                                  !- Latitude {deg}
  -104.65,                                !- Longitude {deg}
  -7,                                     !- Time Zone {hr}
  1650,                                   !- Elevation {m}
  ;                                       !- Terrain

OS:ClimateZones,
  {7a66447f-a7fe-44ae-b498-e9eeebe79733}, !- Handle
  Building America,                       !- Climate Zone Institution Name 1
  ,                                       !- Climate Zone Document Name 1
  0,                                      !- Climate Zone Document Year 1
  Cold;                                   !- Climate Zone Value 1

OS:Site:WaterMainsTemperature,
  {9bbe78ef-5830-4946-a9f6-1b4b5500bafa}, !- Handle
  Correlation,                            !- Calculation Method
  ,                                       !- Temperature Schedule Name
  10.8753424657535,                       !- Annual Average Outdoor Air Temperature {C}
  23.1524007936508;                       !- Maximum Difference In Monthly Average Outdoor Air Temperatures {deltaC}

OS:RunPeriodControl:DaylightSavingTime,
  {ae9accb6-7463-47d8-8a28-c14b994fc6c6}, !- Handle
  4/7,                                    !- Start Date
  10/26;                                  !- End Date

OS:Site:GroundTemperature:Deep,
  {8f5e07ae-7b7d-4bf8-a2be-e5a39c2ce493}, !- Handle
  10.8753424657535,                       !- January Deep Ground Temperature {C}
  10.8753424657535,                       !- February Deep Ground Temperature {C}
  10.8753424657535,                       !- March Deep Ground Temperature {C}
  10.8753424657535,                       !- April Deep Ground Temperature {C}
  10.8753424657535,                       !- May Deep Ground Temperature {C}
  10.8753424657535,                       !- June Deep Ground Temperature {C}
  10.8753424657535,                       !- July Deep Ground Temperature {C}
  10.8753424657535,                       !- August Deep Ground Temperature {C}
  10.8753424657535,                       !- September Deep Ground Temperature {C}
  10.8753424657535,                       !- October Deep Ground Temperature {C}
  10.8753424657535,                       !- November Deep Ground Temperature {C}
  10.8753424657535;                       !- December Deep Ground Temperature {C}

OS:Building,
  {c01e076b-9e9d-4233-891f-6622ba72f0d7}, !- Handle
  Building 1,                             !- Name
  ,                                       !- Building Sector Type
  22.5,                                   !- North Axis {deg}
  ,                                       !- Nominal Floor to Floor Height {m}
  ,                                       !- Space Type Name
  ,                                       !- Default Construction Set Name
  ,                                       !- Default Schedule Set Name
  4,                                      !- Standards Number of Stories
  3,                                      !- Standards Number of Above Ground Stories
  ,                                       !- Standards Template
  singlefamilydetached,                   !- Standards Building Type
  1;                                      !- Standards Number of Living Units

OS:AdditionalProperties,
  {6b5dddfd-4091-484b-9c71-cc97946417fa}, !- Handle
  {c01e076b-9e9d-4233-891f-6622ba72f0d7}, !- Object Name
  Total Units Represented,                !- Feature Name 1
  Integer,                                !- Feature Data Type 1
  1,                                      !- Feature Value 1
  Total Units Modeled,                    !- Feature Name 2
  Integer,                                !- Feature Data Type 2
  1,                                      !- Feature Value 2
  has_water_heater_flue,                  !- Feature Name 3
  Boolean,                                !- Feature Data Type 3
  true;                                   !- Feature Value 3

OS:ThermalZone,
  {c335e36a-fe3c-4b05-97c4-397973c6e310}, !- Handle
  living zone,                            !- Name
  ,                                       !- Multiplier
  ,                                       !- Ceiling Height {m}
  ,                                       !- Volume {m3}
  ,                                       !- Floor Area {m2}
  ,                                       !- Zone Inside Convection Algorithm
  ,                                       !- Zone Outside Convection Algorithm
  ,                                       !- Zone Conditioning Equipment List Name
  {7f18c949-a35f-40fe-9079-201e9fdd262a}, !- Zone Air Inlet Port List
  {6cbf4e65-306b-40fb-ae31-a8dfc05fe461}, !- Zone Air Exhaust Port List
  {9ec941d1-e49f-4925-b2e1-7beb4591391a}, !- Zone Air Node Name
  {aadc035f-0028-49e8-a9dd-40695f78e93e}, !- Zone Return Air Port List
  ,                                       !- Primary Daylighting Control Name
  ,                                       !- Fraction of Zone Controlled by Primary Daylighting Control
  ,                                       !- Secondary Daylighting Control Name
  ,                                       !- Fraction of Zone Controlled by Secondary Daylighting Control
  ,                                       !- Illuminance Map Name
  ,                                       !- Group Rendering Name
  ,                                       !- Thermostat Name
  No;                                     !- Use Ideal Air Loads

OS:Node,
  {2df90663-0ee6-43eb-bba1-854a05dbe90b}, !- Handle
  Node 1,                                 !- Name
  {9ec941d1-e49f-4925-b2e1-7beb4591391a}, !- Inlet Port
  ;                                       !- Outlet Port

OS:Connection,
  {9ec941d1-e49f-4925-b2e1-7beb4591391a}, !- Handle
  {e042e19c-739d-46d4-bd3e-5a1fd96c1a49}, !- Name
  {c335e36a-fe3c-4b05-97c4-397973c6e310}, !- Source Object
  11,                                     !- Outlet Port
  {2df90663-0ee6-43eb-bba1-854a05dbe90b}, !- Target Object
  2;                                      !- Inlet Port

OS:PortList,
  {7f18c949-a35f-40fe-9079-201e9fdd262a}, !- Handle
  {910600eb-26aa-410c-862c-ab6df7319c5d}, !- Name
  {c335e36a-fe3c-4b05-97c4-397973c6e310}; !- HVAC Component

OS:PortList,
  {6cbf4e65-306b-40fb-ae31-a8dfc05fe461}, !- Handle
  {65126f01-62d1-4746-b20f-fa74539dcfbc}, !- Name
  {c335e36a-fe3c-4b05-97c4-397973c6e310}; !- HVAC Component

OS:PortList,
  {aadc035f-0028-49e8-a9dd-40695f78e93e}, !- Handle
  {397e3ef8-a558-4472-a352-9227084f2e2d}, !- Name
  {c335e36a-fe3c-4b05-97c4-397973c6e310}; !- HVAC Component

OS:Sizing:Zone,
  {0e623319-39f3-410a-98a1-546b6220cef1}, !- Handle
  {c335e36a-fe3c-4b05-97c4-397973c6e310}, !- Zone or ZoneList Name
  SupplyAirTemperature,                   !- Zone Cooling Design Supply Air Temperature Input Method
  14,                                     !- Zone Cooling Design Supply Air Temperature {C}
  11.11,                                  !- Zone Cooling Design Supply Air Temperature Difference {deltaC}
  SupplyAirTemperature,                   !- Zone Heating Design Supply Air Temperature Input Method
  40,                                     !- Zone Heating Design Supply Air Temperature {C}
  11.11,                                  !- Zone Heating Design Supply Air Temperature Difference {deltaC}
  0.0085,                                 !- Zone Cooling Design Supply Air Humidity Ratio {kg-H2O/kg-air}
  0.008,                                  !- Zone Heating Design Supply Air Humidity Ratio {kg-H2O/kg-air}
  ,                                       !- Zone Heating Sizing Factor
  ,                                       !- Zone Cooling Sizing Factor
  DesignDay,                              !- Cooling Design Air Flow Method
  ,                                       !- Cooling Design Air Flow Rate {m3/s}
  ,                                       !- Cooling Minimum Air Flow per Zone Floor Area {m3/s-m2}
  ,                                       !- Cooling Minimum Air Flow {m3/s}
  ,                                       !- Cooling Minimum Air Flow Fraction
  DesignDay,                              !- Heating Design Air Flow Method
  ,                                       !- Heating Design Air Flow Rate {m3/s}
  ,                                       !- Heating Maximum Air Flow per Zone Floor Area {m3/s-m2}
  ,                                       !- Heating Maximum Air Flow {m3/s}
  ,                                       !- Heating Maximum Air Flow Fraction
  No,                                     !- Account for Dedicated Outdoor Air System
  NeutralSupplyAir,                       !- Dedicated Outdoor Air System Control Strategy
  autosize,                               !- Dedicated Outdoor Air Low Setpoint Temperature for Design {C}
  autosize;                               !- Dedicated Outdoor Air High Setpoint Temperature for Design {C}

OS:ZoneHVAC:EquipmentList,
  {6d52e393-fe4e-441b-afd1-a4d9148e2b5b}, !- Handle
  Zone HVAC Equipment List 1,             !- Name
  {c335e36a-fe3c-4b05-97c4-397973c6e310}; !- Thermal Zone

OS:ThermalZone,
  {26eb9e2e-575b-491b-a2d8-3e2cc7a42fad}, !- Handle
  garage zone,                            !- Name
  ,                                       !- Multiplier
  ,                                       !- Ceiling Height {m}
  ,                                       !- Volume {m3}
  ,                                       !- Floor Area {m2}
  ,                                       !- Zone Inside Convection Algorithm
  ,                                       !- Zone Outside Convection Algorithm
  ,                                       !- Zone Conditioning Equipment List Name
  {7a27f189-ad3f-4d80-8485-fffadef0f7b8}, !- Zone Air Inlet Port List
  {fa19356d-0a38-41e4-bcd5-bfb83b00e2be}, !- Zone Air Exhaust Port List
  {f82cd6bf-c2b0-4bc5-b64f-fbaab723663b}, !- Zone Air Node Name
  {126df52f-9bb5-42d1-8b19-026e5ff02790}, !- Zone Return Air Port List
  ,                                       !- Primary Daylighting Control Name
  ,                                       !- Fraction of Zone Controlled by Primary Daylighting Control
  ,                                       !- Secondary Daylighting Control Name
  ,                                       !- Fraction of Zone Controlled by Secondary Daylighting Control
  ,                                       !- Illuminance Map Name
  ,                                       !- Group Rendering Name
  ,                                       !- Thermostat Name
  No;                                     !- Use Ideal Air Loads

OS:Node,
  {88a88e9f-06a6-4993-aecc-4d44efe7f28d}, !- Handle
  Node 2,                                 !- Name
  {f82cd6bf-c2b0-4bc5-b64f-fbaab723663b}, !- Inlet Port
  ;                                       !- Outlet Port

OS:Connection,
  {f82cd6bf-c2b0-4bc5-b64f-fbaab723663b}, !- Handle
  {ca9ecf4c-bdff-439c-af8e-a994e12c9dcb}, !- Name
  {26eb9e2e-575b-491b-a2d8-3e2cc7a42fad}, !- Source Object
  11,                                     !- Outlet Port
  {88a88e9f-06a6-4993-aecc-4d44efe7f28d}, !- Target Object
  2;                                      !- Inlet Port

OS:PortList,
  {7a27f189-ad3f-4d80-8485-fffadef0f7b8}, !- Handle
  {9f192e39-e831-4388-abe0-7344f62ae7db}, !- Name
  {26eb9e2e-575b-491b-a2d8-3e2cc7a42fad}; !- HVAC Component

OS:PortList,
  {fa19356d-0a38-41e4-bcd5-bfb83b00e2be}, !- Handle
  {c95fa71a-2477-484f-936c-d940e9eb0079}, !- Name
  {26eb9e2e-575b-491b-a2d8-3e2cc7a42fad}; !- HVAC Component

OS:PortList,
  {126df52f-9bb5-42d1-8b19-026e5ff02790}, !- Handle
  {630ce208-55b4-4052-9024-0ef541b53cc4}, !- Name
  {26eb9e2e-575b-491b-a2d8-3e2cc7a42fad}; !- HVAC Component

OS:Sizing:Zone,
  {ec534d56-5d4d-48f2-a067-a4dafd1b5513}, !- Handle
  {26eb9e2e-575b-491b-a2d8-3e2cc7a42fad}, !- Zone or ZoneList Name
  SupplyAirTemperature,                   !- Zone Cooling Design Supply Air Temperature Input Method
  14,                                     !- Zone Cooling Design Supply Air Temperature {C}
  11.11,                                  !- Zone Cooling Design Supply Air Temperature Difference {deltaC}
  SupplyAirTemperature,                   !- Zone Heating Design Supply Air Temperature Input Method
  40,                                     !- Zone Heating Design Supply Air Temperature {C}
  11.11,                                  !- Zone Heating Design Supply Air Temperature Difference {deltaC}
  0.0085,                                 !- Zone Cooling Design Supply Air Humidity Ratio {kg-H2O/kg-air}
  0.008,                                  !- Zone Heating Design Supply Air Humidity Ratio {kg-H2O/kg-air}
  ,                                       !- Zone Heating Sizing Factor
  ,                                       !- Zone Cooling Sizing Factor
  DesignDay,                              !- Cooling Design Air Flow Method
  ,                                       !- Cooling Design Air Flow Rate {m3/s}
  ,                                       !- Cooling Minimum Air Flow per Zone Floor Area {m3/s-m2}
  ,                                       !- Cooling Minimum Air Flow {m3/s}
  ,                                       !- Cooling Minimum Air Flow Fraction
  DesignDay,                              !- Heating Design Air Flow Method
  ,                                       !- Heating Design Air Flow Rate {m3/s}
  ,                                       !- Heating Maximum Air Flow per Zone Floor Area {m3/s-m2}
  ,                                       !- Heating Maximum Air Flow {m3/s}
  ,                                       !- Heating Maximum Air Flow Fraction
  No,                                     !- Account for Dedicated Outdoor Air System
  NeutralSupplyAir,                       !- Dedicated Outdoor Air System Control Strategy
  autosize,                               !- Dedicated Outdoor Air Low Setpoint Temperature for Design {C}
  autosize;                               !- Dedicated Outdoor Air High Setpoint Temperature for Design {C}

OS:ZoneHVAC:EquipmentList,
  {5896f60c-312a-437e-bdae-b70c46deea9c}, !- Handle
  Zone HVAC Equipment List 2,             !- Name
  {26eb9e2e-575b-491b-a2d8-3e2cc7a42fad}; !- Thermal Zone

OS:Space,
  {6eedf703-9ac1-471e-a882-8d72a2e4db81}, !- Handle
  garage space,                           !- Name
  {7cbafbfd-bf58-434f-af07-1244076de487}, !- Space Type Name
  ,                                       !- Default Construction Set Name
  ,                                       !- Default Schedule Set Name
  -0,                                     !- Direction of Relative North {deg}
  0,                                      !- X Origin {m}
  0,                                      !- Y Origin {m}
  0,                                      !- Z Origin {m}
  ,                                       !- Building Story Name
  {26eb9e2e-575b-491b-a2d8-3e2cc7a42fad}; !- Thermal Zone Name

OS:Surface,
  {ae1d054d-032a-492b-96ed-f00911c9f24f}, !- Handle
  Surface 1,                              !- Name
  Floor,                                  !- Surface Type
  {3145be61-0997-4e3f-b330-f5b3907c0f05}, !- Construction Name
  {6eedf703-9ac1-471e-a882-8d72a2e4db81}, !- Space Name
  Foundation,                             !- Outside Boundary Condition
  {e13a402b-4c3b-458a-8ad3-b45b0943d7d7}, !- Outside Boundary Condition Object
  NoSun,                                  !- Sun Exposure
  NoWind,                                 !- Wind Exposure
  ,                                       !- View Factor to Ground
  ,                                       !- Number of Vertices
  8.91701625975123, -3.048, 0,            !- X,Y,Z Vertex 1 {m}
  8.91701625975123, 3.048, 0,             !- X,Y,Z Vertex 2 {m}
  12.5746162597512, 3.048, 0,             !- X,Y,Z Vertex 3 {m}
  12.5746162597512, -3.048, 0;            !- X,Y,Z Vertex 4 {m}

OS:Surface,
  {e2a6dafa-2148-4118-aa05-c41d0c6ba890}, !- Handle
  Surface 2,                              !- Name
  Wall,                                   !- Surface Type
  {87929adc-3b0f-4c19-b0f7-1a2ac51b64f6}, !- Construction Name
  {6eedf703-9ac1-471e-a882-8d72a2e4db81}, !- Space Name
  Surface,                                !- Outside Boundary Condition
  {c816a0f4-7613-45f7-ba35-a162ab94abb8}, !- Outside Boundary Condition Object
  NoSun,                                  !- Sun Exposure
  NoWind,                                 !- Wind Exposure
  ,                                       !- View Factor to Ground
  ,                                       !- Number of Vertices
  8.91701625975123, 3.048, 2.4384,        !- X,Y,Z Vertex 1 {m}
  8.91701625975123, 3.048, 0,             !- X,Y,Z Vertex 2 {m}
  8.91701625975123, 0, 0,                 !- X,Y,Z Vertex 3 {m}
  8.91701625975123, 0, 2.4384;            !- X,Y,Z Vertex 4 {m}

OS:Surface,
  {59e492db-27af-47b9-93b3-21a629cc8543}, !- Handle
  Surface 3,                              !- Name
  Wall,                                   !- Surface Type
  {87929adc-3b0f-4c19-b0f7-1a2ac51b64f6}, !- Construction Name
  {6eedf703-9ac1-471e-a882-8d72a2e4db81}, !- Space Name
  Surface,                                !- Outside Boundary Condition
  {f4c6ed91-a1e6-44b1-87ca-504246898b97}, !- Outside Boundary Condition Object
  NoSun,                                  !- Sun Exposure
  NoWind,                                 !- Wind Exposure
  ,                                       !- View Factor to Ground
  ,                                       !- Number of Vertices
  12.5746162597512, 3.048, 2.4384,        !- X,Y,Z Vertex 1 {m}
  12.5746162597512, 3.048, 0,             !- X,Y,Z Vertex 2 {m}
  8.91701625975123, 3.048, 0,             !- X,Y,Z Vertex 3 {m}
  8.91701625975123, 3.048, 2.4384;        !- X,Y,Z Vertex 4 {m}

OS:Surface,
  {f6b6978a-3d0b-4d52-b88b-eccb320ca80f}, !- Handle
  Surface 4,                              !- Name
  Wall,                                   !- Surface Type
  {642add04-7f10-4408-9082-163b74e75c41}, !- Construction Name
  {6eedf703-9ac1-471e-a882-8d72a2e4db81}, !- Space Name
  Outdoors,                               !- Outside Boundary Condition
  ,                                       !- Outside Boundary Condition Object
  SunExposed,                             !- Sun Exposure
  WindExposed,                            !- Wind Exposure
  ,                                       !- View Factor to Ground
  ,                                       !- Number of Vertices
  12.5746162597512, -3.048, 2.4384,       !- X,Y,Z Vertex 1 {m}
  12.5746162597512, -3.048, 0,            !- X,Y,Z Vertex 2 {m}
  12.5746162597512, 3.048, 0,             !- X,Y,Z Vertex 3 {m}
  12.5746162597512, 3.048, 2.4384;        !- X,Y,Z Vertex 4 {m}

OS:Surface,
  {7edca8d1-eaa3-4ec6-a99e-611ff65c3fb3}, !- Handle
  Surface 5,                              !- Name
  Wall,                                   !- Surface Type
  {642add04-7f10-4408-9082-163b74e75c41}, !- Construction Name
  {6eedf703-9ac1-471e-a882-8d72a2e4db81}, !- Space Name
  Outdoors,                               !- Outside Boundary Condition
  ,                                       !- Outside Boundary Condition Object
  SunExposed,                             !- Sun Exposure
  WindExposed,                            !- Wind Exposure
  ,                                       !- View Factor to Ground
  ,                                       !- Number of Vertices
  8.91701625975123, -3.048, 2.4384,       !- X,Y,Z Vertex 1 {m}
  8.91701625975123, -3.048, 0,            !- X,Y,Z Vertex 2 {m}
  12.5746162597512, -3.048, 0,            !- X,Y,Z Vertex 3 {m}
  12.5746162597512, -3.048, 2.4384;       !- X,Y,Z Vertex 4 {m}

OS:Surface,
  {74edbab9-7b58-43fb-82fa-504eeb4f8a7e}, !- Handle
  Surface 6,                              !- Name
  RoofCeiling,                            !- Surface Type
  {43e76ef7-9c65-4214-af16-5ce6e1753bdb}, !- Construction Name