!- NOTE: Auto-generated from /test/osw_files/SFD_HVACSizing_Equip_ElecBoiler_Autosize.osw

OS:Version,
  {fcc4d525-5900-455a-9a34-e4d41abb8c47}, !- Handle
  2.9.0;                                  !- Version Identifier

OS:SimulationControl,
  {3b6c1049-99f4-49ed-994d-9375e81cfbd8}, !- Handle
  ,                                       !- Do Zone Sizing Calculation
  ,                                       !- Do System Sizing Calculation
  ,                                       !- Do Plant Sizing Calculation
  No;                                     !- Run Simulation for Sizing Periods

OS:Timestep,
  {b4f8e9e4-d77d-4b96-a7e8-3989a6ddfe1a}, !- Handle
  6;                                      !- Number of Timesteps per Hour

OS:ShadowCalculation,
  {9e28b371-262c-45cb-b0f4-1851449d2bf4}, !- Handle
  20,                                     !- Calculation Frequency
  200;                                    !- Maximum Figures in Shadow Overlap Calculations

OS:SurfaceConvectionAlgorithm:Outside,
  {2d340603-12c2-4dcb-88b5-1842bacd48dd}, !- Handle
  DOE-2;                                  !- Algorithm

OS:SurfaceConvectionAlgorithm:Inside,
  {eca06a73-3d58-457a-b41a-251eba20694b}, !- Handle
  TARP;                                   !- Algorithm

OS:ZoneCapacitanceMultiplier:ResearchSpecial,
  {b1ccd416-be55-440d-9356-f70c0c5f6b3e}, !- Handle
  ,                                       !- Temperature Capacity Multiplier
  15,                                     !- Humidity Capacity Multiplier
  ;                                       !- Carbon Dioxide Capacity Multiplier

OS:RunPeriod,
  {debafc3e-188d-4b18-b20a-f27de255513b}, !- Handle
  Run Period 1,                           !- Name
  1,                                      !- Begin Month
  1,                                      !- Begin Day of Month
  12,                                     !- End Month
  31,                                     !- End Day of Month
  ,                                       !- Use Weather File Holidays and Special Days
  ,                                       !- Use Weather File Daylight Saving Period
  ,                                       !- Apply Weekend Holiday Rule
  ,                                       !- Use Weather File Rain Indicators
  ,                                       !- Use Weather File Snow Indicators
  ;                                       !- Number of Times Runperiod to be Repeated

OS:YearDescription,
  {806152f7-b3c7-4dd1-9fca-c62146d32ed8}, !- Handle
  2007,                                   !- Calendar Year
  ,                                       !- Day of Week for Start Day
  ;                                       !- Is Leap Year

OS:WeatherFile,
  {898bc897-b40b-4967-8a40-fbba1181ab8b}, !- Handle
  Denver Intl Ap,                         !- City
  CO,                                     !- State Province Region
  USA,                                    !- Country
  TMY3,                                   !- Data Source
  725650,                                 !- WMO Number
  39.83,                                  !- Latitude {deg}
  -104.65,                                !- Longitude {deg}
  -7,                                     !- Time Zone {hr}
  1650,                                   !- Elevation {m}
  file:../weather/USA_CO_Denver.Intl.AP.725650_TMY3.epw, !- Url
  E23378AA;                               !- Checksum

OS:AdditionalProperties,
  {2d204158-6486-41a0-a17a-701577760d00}, !- Handle
  {898bc897-b40b-4967-8a40-fbba1181ab8b}, !- Object Name
  EPWHeaderCity,                          !- Feature Name 1
  String,                                 !- Feature Data Type 1
  Denver Intl Ap,                         !- Feature Value 1
  EPWHeaderState,                         !- Feature Name 2
  String,                                 !- Feature Data Type 2
  CO,                                     !- Feature Value 2
  EPWHeaderCountry,                       !- Feature Name 3
  String,                                 !- Feature Data Type 3
  USA,                                    !- Feature Value 3
  EPWHeaderDataSource,                    !- Feature Name 4
  String,                                 !- Feature Data Type 4
  TMY3,                                   !- Feature Value 4
  EPWHeaderStation,                       !- Feature Name 5
  String,                                 !- Feature Data Type 5
  725650,                                 !- Feature Value 5
  EPWHeaderLatitude,                      !- Feature Name 6
  Double,                                 !- Feature Data Type 6
  39.829999999999998,                     !- Feature Value 6
  EPWHeaderLongitude,                     !- Feature Name 7
  Double,                                 !- Feature Data Type 7
  -104.65000000000001,                    !- Feature Value 7
  EPWHeaderTimezone,                      !- Feature Name 8
  Double,                                 !- Feature Data Type 8
  -7,                                     !- Feature Value 8
  EPWHeaderAltitude,                      !- Feature Name 9
  Double,                                 !- Feature Data Type 9
  5413.3858267716532,                     !- Feature Value 9
  EPWHeaderLocalPressure,                 !- Feature Name 10
  Double,                                 !- Feature Data Type 10
  0.81937567683596546,                    !- Feature Value 10
  EPWHeaderRecordsPerHour,                !- Feature Name 11
  Double,                                 !- Feature Data Type 11
  0,                                      !- Feature Value 11
  EPWDataAnnualAvgDrybulb,                !- Feature Name 12
  Double,                                 !- Feature Data Type 12
  51.575616438356228,                     !- Feature Value 12
  EPWDataAnnualMinDrybulb,                !- Feature Name 13
  Double,                                 !- Feature Data Type 13
  -2.9200000000000017,                    !- Feature Value 13
  EPWDataAnnualMaxDrybulb,                !- Feature Name 14
  Double,                                 !- Feature Data Type 14
  104,                                    !- Feature Value 14
  EPWDataCDD50F,                          !- Feature Name 15
  Double,                                 !- Feature Data Type 15
  3072.2925000000005,                     !- Feature Value 15
  EPWDataCDD65F,                          !- Feature Name 16
  Double,                                 !- Feature Data Type 16
  883.62000000000035,                     !- Feature Value 16
  EPWDataHDD50F,                          !- Feature Name 17
  Double,                                 !- Feature Data Type 17
  2497.1925000000001,                     !- Feature Value 17
  EPWDataHDD65F,                          !- Feature Name 18
  Double,                                 !- Feature Data Type 18
  5783.5200000000013,                     !- Feature Value 18
  EPWDataAnnualAvgWindspeed,              !- Feature Name 19
  Double,                                 !- Feature Data Type 19
  3.9165296803649667,                     !- Feature Value 19
  EPWDataMonthlyAvgDrybulbs,              !- Feature Name 20
  String,                                 !- Feature Data Type 20
  33.4191935483871&#4431.90142857142857&#4443.02620967741937&#4442.48624999999999&#4459.877741935483854&#4473.57574999999997&#4472.07975806451608&#4472.70008064516134&#4466.49200000000006&#4450.079112903225806&#4437.218250000000005&#4434.582177419354835, !- Feature Value 20
  EPWDataGroundMonthlyTemps,              !- Feature Name 21
  String,                                 !- Feature Data Type 21
  44.08306285945173&#4440.89570904991865&#4440.64045432632048&#4442.153016571250646&#4448.225111118704206&#4454.268919273837525&#4459.508577937551024&#4462.82777283423508&#4463.10975667174995&#4460.41014950381947&#4455.304105212311526&#4449.445696474514364, !- Feature Value 21
  EPWDataWSF,                             !- Feature Name 22
  Double,                                 !- Feature Data Type 22
  0.58999999999999997,                    !- Feature Value 22
  EPWDataMonthlyAvgDailyHighDrybulbs,     !- Feature Name 23
  String,                                 !- Feature Data Type 23
  47.41032258064516&#4446.58642857142857&#4455.15032258064517&#4453.708&#4472.80193548387098&#4488.67600000000002&#4486.1858064516129&#4485.87225806451613&#4482.082&#4463.18064516129033&#4448.73400000000001&#4448.87935483870968, !- Feature Value 23
  EPWDataMonthlyAvgDailyLowDrybulbs,      !- Feature Name 24
  String,                                 !- Feature Data Type 24
  19.347741935483874&#4419.856428571428573&#4430.316129032258065&#4431.112&#4447.41612903225806&#4457.901999999999994&#4459.063870967741934&#4460.956774193548384&#4452.352000000000004&#4438.41612903225806&#4427.002000000000002&#4423.02903225806451, !- Feature Value 24
  EPWDesignHeatingDrybulb,                !- Feature Name 25
  Double,                                 !- Feature Data Type 25
  12.02,                                  !- Feature Value 25
  EPWDesignHeatingWindspeed,              !- Feature Name 26
  Double,                                 !- Feature Data Type 26
  2.8062500000000004,                     !- Feature Value 26
  EPWDesignCoolingDrybulb,                !- Feature Name 27
  Double,                                 !- Feature Data Type 27
  91.939999999999998,                     !- Feature Value 27
  EPWDesignCoolingWetbulb,                !- Feature Name 28
  Double,                                 !- Feature Data Type 28
  59.95131430195849,                      !- Feature Value 28
  EPWDesignCoolingHumidityRatio,          !- Feature Name 29
  Double,                                 !- Feature Data Type 29
  0.0059161086834698092,                  !- Feature Value 29
  EPWDesignCoolingWindspeed,              !- Feature Name 30
  Double,                                 !- Feature Data Type 30
  3.7999999999999989,                     !- Feature Value 30
  EPWDesignDailyTemperatureRange,         !- Feature Name 31
  Double,                                 !- Feature Data Type 31
  24.915483870967748,                     !- Feature Value 31
  EPWDesignDehumidDrybulb,                !- Feature Name 32
  Double,                                 !- Feature Data Type 32
  67.996785714285721,                     !- Feature Value 32
  EPWDesignDehumidHumidityRatio,          !- Feature Name 33
  Double,                                 !- Feature Data Type 33
  0.012133744170488724,                   !- Feature Value 33
  EPWDesignCoolingDirectNormal,           !- Feature Name 34
  Double,                                 !- Feature Data Type 34
  985,                                    !- Feature Value 34
  EPWDesignCoolingDiffuseHorizontal,      !- Feature Name 35
  Double,                                 !- Feature Data Type 35
  84;                                     !- Feature Value 35

OS:Site,
  {4005cc90-2289-42af-ac2f-94163289f4e8}, !- Handle
  Denver Intl Ap_CO_USA,                  !- Name
  39.83,                                  !- Latitude {deg}
  -104.65,                                !- Longitude {deg}
  -7,                                     !- Time Zone {hr}
  1650,                                   !- Elevation {m}
  Suburbs;                                !- Terrain

OS:ClimateZones,
  {dfc733d2-08ca-44ca-b0ac-c8bf74869b05}, !- Handle
  ,                                       !- Active Institution
  ,                                       !- Active Year
  ,                                       !- Climate Zone Institution Name 1
  ,                                       !- Climate Zone Document Name 1
  ,                                       !- Climate Zone Document Year 1
  ,                                       !- Climate Zone Value 1
  Building America,                       !- Climate Zone Institution Name 2
  ,                                       !- Climate Zone Document Name 2
  0,                                      !- Climate Zone Document Year 2
  Cold;                                   !- Climate Zone Value 2

OS:Site:WaterMainsTemperature,
  {c8b04989-01e6-40c7-94f6-ef3bf4454a86}, !- Handle
  Correlation,                            !- Calculation Method
  ,                                       !- Temperature Schedule Name
  10.8753424657535,                       !- Annual Average Outdoor Air Temperature {C}
  23.1524007936508;                       !- Maximum Difference In Monthly Average Outdoor Air Temperatures {deltaC}

OS:RunPeriodControl:DaylightSavingTime,
  {996a30bc-bf9f-4c0f-9ca1-61e02eb804af}, !- Handle
  4/7,                                    !- Start Date
  10/26;                                  !- End Date

OS:Site:GroundTemperature:Deep,
  {3be1fdd5-9cba-41d5-ba86-96c69dbeed3d}, !- Handle
  10.8753424657535,                       !- January Deep Ground Temperature {C}
  10.8753424657535,                       !- February Deep Ground Temperature {C}
  10.8753424657535,                       !- March Deep Ground Temperature {C}
  10.8753424657535,                       !- April Deep Ground Temperature {C}
  10.8753424657535,                       !- May Deep Ground Temperature {C}
  10.8753424657535,                       !- June Deep Ground Temperature {C}
  10.8753424657535,                       !- July Deep Ground Temperature {C}
  10.8753424657535,                       !- August Deep Ground Temperature {C}
  10.8753424657535,                       !- September Deep Ground Temperature {C}
  10.8753424657535,                       !- October Deep Ground Temperature {C}
  10.8753424657535,                       !- November Deep Ground Temperature {C}
  10.8753424657535;                       !- December Deep Ground Temperature {C}

OS:Building,
  {a9d10c1e-87c5-444e-ab9c-b74fda6f4722}, !- Handle
  Building 1,                             !- Name
  ,                                       !- Building Sector Type
  22.5,                                   !- North Axis {deg}
  ,                                       !- Nominal Floor to Floor Height {m}
  ,                                       !- Space Type Name
  ,                                       !- Default Construction Set Name
  ,                                       !- Default Schedule Set Name
  4,                                      !- Standards Number of Stories
  3,                                      !- Standards Number of Above Ground Stories
  ,                                       !- Standards Template
  singlefamilydetached,                   !- Standards Building Type
  1;                                      !- Standards Number of Living Units

OS:AdditionalProperties,
  {6279c2a8-bcc1-4140-80c9-baa70c9c53c6}, !- Handle
  {a9d10c1e-87c5-444e-ab9c-b74fda6f4722}, !- Object Name
  Total Units Represented,                !- Feature Name 1
  Integer,                                !- Feature Data Type 1
  1,                                      !- Feature Value 1
  Total Units Modeled,                    !- Feature Name 2
  Integer,                                !- Feature Data Type 2
  1,                                      !- Feature Value 2
  has_water_heater_flue,                  !- Feature Name 3
  Boolean,                                !- Feature Data Type 3
  true,                                   !- Feature Value 3
  has_hvac_flue,                          !- Feature Name 4
  Boolean,                                !- Feature Data Type 4
  false;                                  !- Feature Value 4

OS:ThermalZone,
  {836a7854-a695-4861-985a-8861a562405e}, !- Handle
  living zone,                            !- Name
  ,                                       !- Multiplier
  ,                                       !- Ceiling Height {m}
  ,                                       !- Volume {m3}
  ,                                       !- Floor Area {m2}
  ,                                       !- Zone Inside Convection Algorithm
  ,                                       !- Zone Outside Convection Algorithm
  ,                                       !- Zone Conditioning Equipment List Name
  {8b18810c-aaed-41e5-8411-f9a4e827d280}, !- Zone Air Inlet Port List
  {91a3e24a-2343-4f3e-ae60-b946c9c11332}, !- Zone Air Exhaust Port List
  {dee05d3c-9875-47f8-bec9-48818c24a34e}, !- Zone Air Node Name
  {a0234e94-4413-49ba-a19a-2b6082e5f104}, !- Zone Return Air Port List
  ,                                       !- Primary Daylighting Control Name
  ,                                       !- Fraction of Zone Controlled by Primary Daylighting Control
  ,                                       !- Secondary Daylighting Control Name
  ,                                       !- Fraction of Zone Controlled by Secondary Daylighting Control
  ,                                       !- Illuminance Map Name
  ,                                       !- Group Rendering Name
  {61dc677d-320b-43cc-bf4c-64ddf0558250}, !- Thermostat Name
  No;                                     !- Use Ideal Air Loads

OS:Node,
  {e4a33a00-8542-4c49-93c3-f93afdb762bf}, !- Handle
  Node 1,                                 !- Name
  {dee05d3c-9875-47f8-bec9-48818c24a34e}, !- Inlet Port
  ;                                       !- Outlet Port

OS:Connection,
  {dee05d3c-9875-47f8-bec9-48818c24a34e}, !- Handle
  {1b283985-bb46-4e42-bb47-7753983eab2a}, !- Name
  {836a7854-a695-4861-985a-8861a562405e}, !- Source Object
  11,                                     !- Outlet Port
  {e4a33a00-8542-4c49-93c3-f93afdb762bf}, !- Target Object
  2;                                      !- Inlet Port

OS:PortList,
  {8b18810c-aaed-41e5-8411-f9a4e827d280}, !- Handle
  {b61d33b3-2ca6-4c5f-b625-441cfbd38c8c}, !- Name
  {836a7854-a695-4861-985a-8861a562405e}; !- HVAC Component

OS:PortList,
  {91a3e24a-2343-4f3e-ae60-b946c9c11332}, !- Handle
  {d5e58975-0437-4d5a-b45e-d9ddc24d0058}, !- Name
  {836a7854-a695-4861-985a-8861a562405e}; !- HVAC Component

OS:PortList,
  {a0234e94-4413-49ba-a19a-2b6082e5f104}, !- Handle
  {1e5f74fd-3e7e-49bf-be9b-62e9ba09e141}, !- Name
  {836a7854-a695-4861-985a-8861a562405e}; !- HVAC Component

OS:Sizing:Zone,
  {9c87ab53-1214-49cd-a95d-90e46f0e0c2e}, !- Handle
  {836a7854-a695-4861-985a-8861a562405e}, !- Zone or ZoneList Name
  SupplyAirTemperature,                   !- Zone Cooling Design Supply Air Temperature Input Method
  14,                                     !- Zone Cooling Design Supply Air Temperature {C}
  11.11,                                  !- Zone Cooling Design Supply Air Temperature Difference {deltaC}
  SupplyAirTemperature,                   !- Zone Heating Design Supply Air Temperature Input Method
  40,                                     !- Zone Heating Design Supply Air Temperature {C}
  11.11,                                  !- Zone Heating Design Supply Air Temperature Difference {deltaC}
  0.0085,                                 !- Zone Cooling Design Supply Air Humidity Ratio {kg-H2O/kg-air}
  0.008,                                  !- Zone Heating Design Supply Air Humidity Ratio {kg-H2O/kg-air}
  ,                                       !- Zone Heating Sizing Factor
  ,                                       !- Zone Cooling Sizing Factor
  DesignDay,                              !- Cooling Design Air Flow Method
  ,                                       !- Cooling Design Air Flow Rate {m3/s}
  ,                                       !- Cooling Minimum Air Flow per Zone Floor Area {m3/s-m2}
  ,                                       !- Cooling Minimum Air Flow {m3/s}
  ,                                       !- Cooling Minimum Air Flow Fraction
  DesignDay,                              !- Heating Design Air Flow Method
  ,                                       !- Heating Design Air Flow Rate {m3/s}
  ,                                       !- Heating Maximum Air Flow per Zone Floor Area {m3/s-m2}
  ,                                       !- Heating Maximum Air Flow {m3/s}
  ,                                       !- Heating Maximum Air Flow Fraction
  ,                                       !- Design Zone Air Distribution Effectiveness in Cooling Mode
  ,                                       !- Design Zone Air Distribution Effectiveness in Heating Mode
  No,                                     !- Account for Dedicated Outdoor Air System
  NeutralSupplyAir,                       !- Dedicated Outdoor Air System Control Strategy
  autosize,                               !- Dedicated Outdoor Air Low Setpoint Temperature for Design {C}
  autosize;                               !- Dedicated Outdoor Air High Setpoint Temperature for Design {C}

OS:ZoneHVAC:EquipmentList,
  {f993877d-0cbd-4f98-b5ed-bdac28c37995}, !- Handle
  Zone HVAC Equipment List 1,             !- Name
  {836a7854-a695-4861-985a-8861a562405e}, !- Thermal Zone
  SequentialLoad,                         !- Load Distribution Scheme
  {33fc026c-4999-49f4-997e-4d0fef23d0fc}, !- Zone Equipment 1
  1,                                      !- Zone Equipment Cooling Sequence 1
  1,                                      !- Zone Equipment Heating or No-Load Sequence 1
  ,                                       !- Zone Equipment Sequential Cooling Fraction Schedule Name 1
  ;                                       !- Zone Equipment Sequential Heating Fraction Schedule Name 1

OS:ThermalZone,
  {a60c9893-96e9-4739-8bb6-ff0d466c1c6a}, !- Handle
  garage zone,                            !- Name
  ,                                       !- Multiplier
  ,                                       !- Ceiling Height {m}
  ,                                       !- Volume {m3}
  ,                                       !- Floor Area {m2}
  ,                                       !- Zone Inside Convection Algorithm
  ,                                       !- Zone Outside Convection Algorithm
  ,                                       !- Zone Conditioning Equipment List Name
  {3896c5a4-8658-4ef8-b0ce-be647546bfdf}, !- Zone Air Inlet Port List
  {8816c8c2-7c0a-4122-98ee-dfb2c9af1fde}, !- Zone Air Exhaust Port List
  {180d34ef-4e47-4312-9e11-a1a40644f95f}, !- Zone Air Node Name
  {23eb9b11-5970-450a-bdfb-358228683d8c}, !- Zone Return Air Port List
  ,                                       !- Primary Daylighting Control Name
  ,                                       !- Fraction of Zone Controlled by Primary Daylighting Control
  ,                                       !- Secondary Daylighting Control Name
  ,                                       !- Fraction of Zone Controlled by Secondary Daylighting Control
  ,                                       !- Illuminance Map Name
  ,                                       !- Group Rendering Name
  ,                                       !- Thermostat Name
  No;                                     !- Use Ideal Air Loads

OS:Node,
  {4e957b7d-6181-4dab-b49c-a4c7db61be64}, !- Handle
  Node 2,                                 !- Name
  {180d34ef-4e47-4312-9e11-a1a40644f95f}, !- Inlet Port
  ;                                       !- Outlet Port

OS:Connection,
  {180d34ef-4e47-4312-9e11-a1a40644f95f}, !- Handle
  {59800cc4-4828-42ad-98a7-7e04a6d43f1a}, !- Name
  {a60c9893-96e9-4739-8bb6-ff0d466c1c6a}, !- Source Object
  11,                                     !- Outlet Port
  {4e957b7d-6181-4dab-b49c-a4c7db61be64}, !- Target Object
  2;                                      !- Inlet Port

OS:PortList,
  {3896c5a4-8658-4ef8-b0ce-be647546bfdf}, !- Handle
  {62ab1ec9-8eac-44a7-8211-8e30fbfe9065}, !- Name
  {a60c9893-96e9-4739-8bb6-ff0d466c1c6a}; !- HVAC Component

OS:PortList,
  {8816c8c2-7c0a-4122-98ee-dfb2c9af1fde}, !- Handle
  {287fe209-cf7c-45c5-8a40-904b5c17ad23}, !- Name
  {a60c9893-96e9-4739-8bb6-ff0d466c1c6a}; !- HVAC Component

OS:PortList,
  {23eb9b11-5970-450a-bdfb-358228683d8c}, !- Handle
  {e56d8c55-e741-4cdb-8094-9e8196e09c96}, !- Name
  {a60c9893-96e9-4739-8bb6-ff0d466c1c6a}; !- HVAC Component

OS:Sizing:Zone,
  {b0c5def2-0402-4ae1-8398-b10998f9920d}, !- Handle
  {a60c9893-96e9-4739-8bb6-ff0d466c1c6a}, !- Zone or ZoneList Name
  SupplyAirTemperature,                   !- Zone Cooling Design Supply Air Temperature Input Method
  14,                                     !- Zone Cooling Design Supply Air Temperature {C}
  11.11,                                  !- Zone Cooling Design Supply Air Temperature Difference {deltaC}
  SupplyAirTemperature,                   !- Zone Heating Design Supply Air Temperature Input Method
  40,                                     !- Zone Heating Design Supply Air Temperature {C}
  11.11,                                  !- Zone Heating Design Supply Air Temperature Difference {deltaC}
  0.0085,                                 !- Zone Cooling Design Supply Air Humidity Ratio {kg-H2O/kg-air}
  0.008,                                  !- Zone Heating Design Supply Air Humidity Ratio {kg-H2O/kg-air}
  ,                                       !- Zone Heating Sizing Factor
  ,                                       !- Zone Cooling Sizing Factor
  DesignDay,                              !- Cooling Design Air Flow Method
  ,                                       !- Cooling Design Air Flow Rate {m3/s}
  ,                                       !- Cooling Minimum Air Flow per Zone Floor Area {m3/s-m2}
  ,                                       !- Cooling Minimum Air Flow {m3/s}
  ,                                       !- Cooling Minimum Air Flow Fraction
  DesignDay,                              !- Heating Design Air Flow Method
  ,                                       !- Heating Design Air Flow Rate {m3/s}
  ,                                       !- Heating Maximum Air Flow per Zone Floor Area {m3/s-m2}
  ,                                       !- Heating Maximum Air Flow {m3/s}
  ,                                       !- Heating Maximum Air Flow Fraction
  ,                                       !- Design Zone Air Distribution Effectiveness in Cooling Mode
  ,                                       !- Design Zone Air Distribution Effectiveness in Heating Mode
  No,                                     !- Account for Dedicated Outdoor Air System
  NeutralSupplyAir,                       !- Dedicated Outdoor Air System Control Strategy
  autosize,                               !- Dedicated Outdoor Air Low Setpoint Temperature for Design {C}
  autosize;                               !- Dedicated Outdoor Air High Setpoint Temperature for Design {C}

OS:ZoneHVAC:EquipmentList,
  {5428031f-a08c-410e-8598-8df0b60d9d76}, !- Handle
  Zone HVAC Equipment List 2,             !- Name
  {a60c9893-96e9-4739-8bb6-ff0d466c1c6a}; !- Thermal Zone

OS:Space,
  {a89f9115-b423-44b8-99a6-d94a9ec1fe2c}, !- Handle
  garage space,                           !- Name
  {02d69c03-c6c9-4c3f-8006-ba3706a0cd68}, !- Space Type Name
  ,                                       !- Default Construction Set Name
  ,                                       !- Default Schedule Set Name
  -0,                                     !- Direction of Relative North {deg}
  0,                                      !- X Origin {m}
  0,                                      !- Y Origin {m}
  0,                                      !- Z Origin {m}
  ,                                       !- Building Story Name
  {a60c9893-96e9-4739-8bb6-ff0d466c1c6a}; !- Thermal Zone Name

OS:Surface,
  {f6326e6c-fec3-47e7-8b2e-01455a1325b0}, !- Handle
  Surface 1,                              !- Name
  Floor,                                  !- Surface Type
  {0900f923-370c-4b4c-ab95-91e79d3db929}, !- Construction Name
  {a89f9115-b423-44b8-99a6-d94a9ec1fe2c}, !- Space Name
  Foundation,                             !- Outside Boundary Condition
  {59208dcf-8378-4c24-bf52-5e5b77fd05cf}, !- Outside Boundary Condition Object
  NoSun,                                  !- Sun Exposure
  NoWind,                                 !- Wind Exposure
  ,                                       !- View Factor to Ground
  ,                                       !- Number of Vertices
  8.91701625975123, -3.048, 0,            !- X,Y,Z Vertex 1 {m}
  8.91701625975123, 3.048, 0,             !- X,Y,Z Vertex 2 {m}
  12.5746162597512, 3.048, 0,             !- X,Y,Z Vertex 3 {m}
  12.5746162597512, -3.048, 0;            !- X,Y,Z Vertex 4 {m}

OS:Surface,
  {abc4ee85-f660-44d0-ae86-b585d61b76ca}, !- Handle
  Surface 2,                              !- Name
  Wall,                                   !- Surface Type
  {80ab0c73-0c54-49f2-bedd-c630d7912420}, !- Construction Name
  {a89f9115-b423-44b8-99a6-d94a9ec1fe2c}, !- Space Name
  Surface,                                !- Outside Boundary Condition
  {c712e3ba-e3ec-4e28-8f51-10ec8cec3486}, !- Outside Boundary Condition Object
  NoSun,                                  !- Sun Exposure
  NoWind,                                 !- Wind Exposure
  ,                                       !- View Factor to Ground
  ,                                       !- Number of Vertices
  8.91701625975123, 3.048, 2.4384,        !- X,Y,Z Vertex 1 {m}
  8.91701625975123, 3.048, 0,             !- X,Y,Z Vertex 2 {m}
  8.91701625975123, 0, 0,                 !- X,Y,Z Vertex 3 {m}
  8.91701625975123, 0, 2.4384;            !- X,Y,Z Vertex 4 {m}

OS:Surface,
  {389935b4-1c3b-4abc-a997-fe14dbf8897b}, !- Handle
  Surface 3,                              !- Name
  Wall,                                   !- Surface Type
  {80ab0c73-0c54-49f2-bedd-c630d7912420}, !- Construction Name
  {a89f9115-b423-44b8-99a6-d94a9ec1fe2c}, !- Space Name
  Surface,                                !- Outside Boundary Condition
  {c8f7c205-73e3-4c72-ad27-719dc6324cfb}, !- Outside Boundary Condition Object
  NoSun,                                  !- Sun Exposure
  NoWind,                                 !- Wind Exposure
  ,                                       !- View Factor to Ground
  ,                                       !- Number of Vertices