!- NOTE: Auto-generated from /test/osw_files/SFD_2000sqft_2story_SL_UA_3Beds_2Baths_Denver_Furnace_NoSetpoints.osw

OS:Version,
  {31b9bece-fbd7-453b-afdd-d6f23ba71355}, !- Handle
  2.9.0;                                  !- Version Identifier

OS:SimulationControl,
  {a1421853-65f5-406f-823f-72b93761b8c9}, !- Handle
  ,                                       !- Do Zone Sizing Calculation
  ,                                       !- Do System Sizing Calculation
  ,                                       !- Do Plant Sizing Calculation
  No;                                     !- Run Simulation for Sizing Periods

OS:Timestep,
  {ac6bd7dc-0651-43da-b676-a765461059b0}, !- Handle
  6;                                      !- Number of Timesteps per Hour

OS:ShadowCalculation,
  {207e8e80-ac5e-40ae-bbc2-4226c42563fb}, !- Handle
  20,                                     !- Calculation Frequency
  200;                                    !- Maximum Figures in Shadow Overlap Calculations

OS:SurfaceConvectionAlgorithm:Outside,
  {84260243-4f08-42f3-b51a-9101b83425c7}, !- Handle
  DOE-2;                                  !- Algorithm

OS:SurfaceConvectionAlgorithm:Inside,
  {c28890a4-3d88-41b2-a9fb-1c493d4045d0}, !- Handle
  TARP;                                   !- Algorithm

OS:ZoneCapacitanceMultiplier:ResearchSpecial,
  {a53b528d-a6b9-49aa-a5b9-2fe730e5086e}, !- Handle
  ,                                       !- Temperature Capacity Multiplier
  15,                                     !- Humidity Capacity Multiplier
  ;                                       !- Carbon Dioxide Capacity Multiplier

OS:RunPeriod,
  {c983fa7d-b30f-4653-8bee-c021a083b0f3}, !- Handle
  Run Period 1,                           !- Name
  1,                                      !- Begin Month
  1,                                      !- Begin Day of Month
  12,                                     !- End Month
  31,                                     !- End Day of Month
  ,                                       !- Use Weather File Holidays and Special Days
  ,                                       !- Use Weather File Daylight Saving Period
  ,                                       !- Apply Weekend Holiday Rule
  ,                                       !- Use Weather File Rain Indicators
  ,                                       !- Use Weather File Snow Indicators
  ;                                       !- Number of Times Runperiod to be Repeated

OS:YearDescription,
  {34045441-1688-4c28-a1f1-8a58064e950e}, !- Handle
  2007,                                   !- Calendar Year
  ,                                       !- Day of Week for Start Day
  ;                                       !- Is Leap Year

OS:ThermalZone,
  {4b4fe868-7fa8-4859-82ba-5661dc92ecb7}, !- Handle
  living zone,                            !- Name
  ,                                       !- Multiplier
  ,                                       !- Ceiling Height {m}
  ,                                       !- Volume {m3}
  ,                                       !- Floor Area {m2}
  ,                                       !- Zone Inside Convection Algorithm
  ,                                       !- Zone Outside Convection Algorithm
  ,                                       !- Zone Conditioning Equipment List Name
  {3c35f376-55ca-4176-b1df-b24ee4ea6618}, !- Zone Air Inlet Port List
  {df69f817-043e-40bc-97ce-f86fd9cbefb2}, !- Zone Air Exhaust Port List
  {a46f4d45-c278-4a9f-8b89-8ed6a96f1f5c}, !- Zone Air Node Name
  {015d4366-b997-41d8-b8b7-ff892b9f2a1c}, !- Zone Return Air Port List
  ,                                       !- Primary Daylighting Control Name
  ,                                       !- Fraction of Zone Controlled by Primary Daylighting Control
  ,                                       !- Secondary Daylighting Control Name
  ,                                       !- Fraction of Zone Controlled by Secondary Daylighting Control
  ,                                       !- Illuminance Map Name
  ,                                       !- Group Rendering Name
  ,                                       !- Thermostat Name
  No;                                     !- Use Ideal Air Loads

OS:Node,
  {abaa8d44-f1b4-4080-b291-555d5c3729ad}, !- Handle
  Node 1,                                 !- Name
  {a46f4d45-c278-4a9f-8b89-8ed6a96f1f5c}, !- Inlet Port
  ;                                       !- Outlet Port

OS:Connection,
  {a46f4d45-c278-4a9f-8b89-8ed6a96f1f5c}, !- Handle
  {af6e6208-c5b6-4924-a9f1-54c73862e8ae}, !- Name
  {4b4fe868-7fa8-4859-82ba-5661dc92ecb7}, !- Source Object
  11,                                     !- Outlet Port
  {abaa8d44-f1b4-4080-b291-555d5c3729ad}, !- Target Object
  2;                                      !- Inlet Port

OS:PortList,
  {3c35f376-55ca-4176-b1df-b24ee4ea6618}, !- Handle
  {5a84c045-2af5-4395-830a-8434fb52bfd6}, !- Name
  {4b4fe868-7fa8-4859-82ba-5661dc92ecb7}, !- HVAC Component
  {1a3bb713-b28e-450c-9ef9-f7042a69cef5}; !- Port 1

OS:PortList,
  {df69f817-043e-40bc-97ce-f86fd9cbefb2}, !- Handle
  {c95b801b-9ea5-44fa-afea-ea0fc3f523b7}, !- Name
  {4b4fe868-7fa8-4859-82ba-5661dc92ecb7}; !- HVAC Component

OS:PortList,
  {015d4366-b997-41d8-b8b7-ff892b9f2a1c}, !- Handle
  {3855e4c5-eec5-4e12-ba26-00d1b6ec4b5f}, !- Name
  {4b4fe868-7fa8-4859-82ba-5661dc92ecb7}, !- HVAC Component
  {95de1869-4d07-4c94-8994-7b759ffe6084}; !- Port 1

OS:Sizing:Zone,
  {4e89b823-7783-43e0-8fb1-ec2b302f0a18}, !- Handle
  {4b4fe868-7fa8-4859-82ba-5661dc92ecb7}, !- Zone or ZoneList Name
  SupplyAirTemperature,                   !- Zone Cooling Design Supply Air Temperature Input Method
  14,                                     !- Zone Cooling Design Supply Air Temperature {C}
  11.11,                                  !- Zone Cooling Design Supply Air Temperature Difference {deltaC}
  SupplyAirTemperature,                   !- Zone Heating Design Supply Air Temperature Input Method
  40,                                     !- Zone Heating Design Supply Air Temperature {C}
  11.11,                                  !- Zone Heating Design Supply Air Temperature Difference {deltaC}
  0.0085,                                 !- Zone Cooling Design Supply Air Humidity Ratio {kg-H2O/kg-air}
  0.008,                                  !- Zone Heating Design Supply Air Humidity Ratio {kg-H2O/kg-air}
  ,                                       !- Zone Heating Sizing Factor
  ,                                       !- Zone Cooling Sizing Factor
  DesignDay,                              !- Cooling Design Air Flow Method
  ,                                       !- Cooling Design Air Flow Rate {m3/s}
  ,                                       !- Cooling Minimum Air Flow per Zone Floor Area {m3/s-m2}
  ,                                       !- Cooling Minimum Air Flow {m3/s}
  ,                                       !- Cooling Minimum Air Flow Fraction
  DesignDay,                              !- Heating Design Air Flow Method
  ,                                       !- Heating Design Air Flow Rate {m3/s}
  ,                                       !- Heating Maximum Air Flow per Zone Floor Area {m3/s-m2}
  ,                                       !- Heating Maximum Air Flow {m3/s}
  ,                                       !- Heating Maximum Air Flow Fraction
  ,                                       !- Design Zone Air Distribution Effectiveness in Cooling Mode
  ,                                       !- Design Zone Air Distribution Effectiveness in Heating Mode
  No,                                     !- Account for Dedicated Outdoor Air System
  NeutralSupplyAir,                       !- Dedicated Outdoor Air System Control Strategy
  autosize,                               !- Dedicated Outdoor Air Low Setpoint Temperature for Design {C}
  autosize;                               !- Dedicated Outdoor Air High Setpoint Temperature for Design {C}

OS:ZoneHVAC:EquipmentList,
  {aa3bcb08-b060-42aa-a52b-3b25534ab65a}, !- Handle
  Zone HVAC Equipment List 1,             !- Name
  {4b4fe868-7fa8-4859-82ba-5661dc92ecb7}, !- Thermal Zone
  SequentialLoad,                         !- Load Distribution Scheme
  {e9bcbf24-6cf0-4180-ac36-9d069b6ade16}, !- Zone Equipment 1
  1,                                      !- Zone Equipment Cooling Sequence 1
  1,                                      !- Zone Equipment Heating or No-Load Sequence 1
  ,                                       !- Zone Equipment Sequential Cooling Fraction Schedule Name 1
  ;                                       !- Zone Equipment Sequential Heating Fraction Schedule Name 1

OS:Space,
  {cb14ce83-6469-4d88-ba61-3277eee7ff5f}, !- Handle
  living space,                           !- Name
  {a1b18574-2f97-4f70-8018-c550e3ed2a5a}, !- Space Type Name
  ,                                       !- Default Construction Set Name
  ,                                       !- Default Schedule Set Name
  -0,                                     !- Direction of Relative North {deg}
  0,                                      !- X Origin {m}
  0,                                      !- Y Origin {m}
  0,                                      !- Z Origin {m}
  ,                                       !- Building Story Name
  {4b4fe868-7fa8-4859-82ba-5661dc92ecb7}, !- Thermal Zone Name
  ,                                       !- Part of Total Floor Area
  ,                                       !- Design Specification Outdoor Air Object Name
  {c6de04fd-c73c-4eb2-8393-23032be54acb}; !- Building Unit Name

OS:Surface,
  {f6db3da9-e915-42ff-b938-71d4d6a40fab}, !- Handle
  Surface 1,                              !- Name
  Floor,                                  !- Surface Type
  ,                                       !- Construction Name
  {cb14ce83-6469-4d88-ba61-3277eee7ff5f}, !- Space Name
  Foundation,                             !- Outside Boundary Condition
  ,                                       !- Outside Boundary Condition Object
  NoSun,                                  !- Sun Exposure
  NoWind,                                 !- Wind Exposure
  ,                                       !- View Factor to Ground
  ,                                       !- Number of Vertices
  0, 0, 0,                                !- X,Y,Z Vertex 1 {m}
  0, 6.81553519541936, 0,                 !- X,Y,Z Vertex 2 {m}
  13.6310703908387, 6.81553519541936, 0,  !- X,Y,Z Vertex 3 {m}
  13.6310703908387, 0, 0;                 !- X,Y,Z Vertex 4 {m}

OS:Surface,
  {691ae80f-dc54-443f-ae00-78a9abf2aa06}, !- Handle
  Surface 2,                              !- Name
  Wall,                                   !- Surface Type
  ,                                       !- Construction Name
  {cb14ce83-6469-4d88-ba61-3277eee7ff5f}, !- Space Name
  Outdoors,                               !- Outside Boundary Condition
  ,                                       !- Outside Boundary Condition Object
  SunExposed,                             !- Sun Exposure
  WindExposed,                            !- Wind Exposure
  ,                                       !- View Factor to Ground
  ,                                       !- Number of Vertices
  0, 6.81553519541936, 2.4384,            !- X,Y,Z Vertex 1 {m}
  0, 6.81553519541936, 0,                 !- X,Y,Z Vertex 2 {m}
  0, 0, 0,                                !- X,Y,Z Vertex 3 {m}
  0, 0, 2.4384;                           !- X,Y,Z Vertex 4 {m}

OS:Surface,
  {190011c7-08e0-4146-bb66-68ecc1071ec9}, !- Handle
  Surface 3,                              !- Name
  Wall,                                   !- Surface Type
  ,                                       !- Construction Name
  {cb14ce83-6469-4d88-ba61-3277eee7ff5f}, !- Space Name
  Outdoors,                               !- Outside Boundary Condition
  ,                                       !- Outside Boundary Condition Object
  SunExposed,                             !- Sun Exposure
  WindExposed,                            !- Wind Exposure
  ,                                       !- View Factor to Ground
  ,                                       !- Number of Vertices
  13.6310703908387, 6.81553519541936, 2.4384, !- X,Y,Z Vertex 1 {m}
  13.6310703908387, 6.81553519541936, 0,  !- X,Y,Z Vertex 2 {m}
  0, 6.81553519541936, 0,                 !- X,Y,Z Vertex 3 {m}
  0, 6.81553519541936, 2.4384;            !- X,Y,Z Vertex 4 {m}

OS:Surface,
  {e3f6cf96-be70-490f-993d-10fb590d90d7}, !- Handle
  Surface 4,                              !- Name
  Wall,                                   !- Surface Type
  ,                                       !- Construction Name
  {cb14ce83-6469-4d88-ba61-3277eee7ff5f}, !- Space Name
  Outdoors,                               !- Outside Boundary Condition
  ,                                       !- Outside Boundary Condition Object
  SunExposed,                             !- Sun Exposure
  WindExposed,                            !- Wind Exposure
  ,                                       !- View Factor to Ground
  ,                                       !- Number of Vertices
  13.6310703908387, 0, 2.4384,            !- X,Y,Z Vertex 1 {m}
  13.6310703908387, 0, 0,                 !- X,Y,Z Vertex 2 {m}
  13.6310703908387, 6.81553519541936, 0,  !- X,Y,Z Vertex 3 {m}
  13.6310703908387, 6.81553519541936, 2.4384; !- X,Y,Z Vertex 4 {m}

OS:Surface,
  {5a17a884-563f-47f5-bf60-847771d0140f}, !- Handle
  Surface 5,                              !- Name
  Wall,                                   !- Surface Type
  ,                                       !- Construction Name
  {cb14ce83-6469-4d88-ba61-3277eee7ff5f}, !- Space Name
  Outdoors,                               !- Outside Boundary Condition
  ,                                       !- Outside Boundary Condition Object
  SunExposed,                             !- Sun Exposure
  WindExposed,                            !- Wind Exposure
  ,                                       !- View Factor to Ground
  ,                                       !- Number of Vertices
  0, 0, 2.4384,                           !- X,Y,Z Vertex 1 {m}
  0, 0, 0,                                !- X,Y,Z Vertex 2 {m}
  13.6310703908387, 0, 0,                 !- X,Y,Z Vertex 3 {m}
  13.6310703908387, 0, 2.4384;            !- X,Y,Z Vertex 4 {m}

OS:Surface,
  {061f98ad-ca12-429f-9350-e4f2692ab550}, !- Handle
  Surface 6,                              !- Name
  RoofCeiling,                            !- Surface Type
  ,                                       !- Construction Name
  {cb14ce83-6469-4d88-ba61-3277eee7ff5f}, !- Space Name
  Surface,                                !- Outside Boundary Condition
  {474665ee-6b6d-4089-a1d9-a4fcb456e2a8}, !- Outside Boundary Condition Object
  NoSun,                                  !- Sun Exposure
  NoWind,                                 !- Wind Exposure
  ,                                       !- View Factor to Ground
  ,                                       !- Number of Vertices
  13.6310703908387, 0, 2.4384,            !- X,Y,Z Vertex 1 {m}
  13.6310703908387, 6.81553519541936, 2.4384, !- X,Y,Z Vertex 2 {m}
  0, 6.81553519541936, 2.4384,            !- X,Y,Z Vertex 3 {m}
  0, 0, 2.4384;                           !- X,Y,Z Vertex 4 {m}

OS:SpaceType,
  {a1b18574-2f97-4f70-8018-c550e3ed2a5a}, !- Handle
  Space Type 1,                           !- Name
  ,                                       !- Default Construction Set Name
  ,                                       !- Default Schedule Set Name
  ,                                       !- Group Rendering Name
  ,                                       !- Design Specification Outdoor Air Object Name
  ,                                       !- Standards Template
  ,                                       !- Standards Building Type
  living;                                 !- Standards Space Type

OS:Space,
  {a4392a3a-df5f-4296-8401-5eca2174d9a8}, !- Handle
  living space|story 2,                   !- Name
  {a1b18574-2f97-4f70-8018-c550e3ed2a5a}, !- Space Type Name
  ,                                       !- Default Construction Set Name
  ,                                       !- Default Schedule Set Name
  -0,                                     !- Direction of Relative North {deg}
  0,                                      !- X Origin {m}
  0,                                      !- Y Origin {m}
  2.4384,                                 !- Z Origin {m}
  ,                                       !- Building Story Name
  {4b4fe868-7fa8-4859-82ba-5661dc92ecb7}, !- Thermal Zone Name
  ,                                       !- Part of Total Floor Area
  ,                                       !- Design Specification Outdoor Air Object Name
  {c6de04fd-c73c-4eb2-8393-23032be54acb}; !- Building Unit Name

OS:Surface,
  {474665ee-6b6d-4089-a1d9-a4fcb456e2a8}, !- Handle
  Surface 7,                              !- Name
  Floor,                                  !- Surface Type
  ,                                       !- Construction Name
  {a4392a3a-df5f-4296-8401-5eca2174d9a8}, !- Space Name
  Surface,                                !- Outside Boundary Condition
  {061f98ad-ca12-429f-9350-e4f2692ab550}, !- Outside Boundary Condition Object
  NoSun,                                  !- Sun Exposure
  NoWind,                                 !- Wind Exposure
  ,                                       !- View Factor to Ground
  ,                                       !- Number of Vertices
  0, 0, 0,                                !- X,Y,Z Vertex 1 {m}
  0, 6.81553519541936, 0,                 !- X,Y,Z Vertex 2 {m}
  13.6310703908387, 6.81553519541936, 0,  !- X,Y,Z Vertex 3 {m}
  13.6310703908387, 0, 0;                 !- X,Y,Z Vertex 4 {m}

OS:Surface,
  {de96f961-99e8-4685-8918-adf497669494}, !- Handle
  Surface 8,                              !- Name
  Wall,                                   !- Surface Type
  ,                                       !- Construction Name
  {a4392a3a-df5f-4296-8401-5eca2174d9a8}, !- Space Name
  Outdoors,                               !- Outside Boundary Condition
  ,                                       !- Outside Boundary Condition Object
  SunExposed,                             !- Sun Exposure
  WindExposed,                            !- Wind Exposure
  ,                                       !- View Factor to Ground
  ,                                       !- Number of Vertices
  0, 6.81553519541936, 2.4384,            !- X,Y,Z Vertex 1 {m}
  0, 6.81553519541936, 0,                 !- X,Y,Z Vertex 2 {m}
  0, 0, 0,                                !- X,Y,Z Vertex 3 {m}
  0, 0, 2.4384;                           !- X,Y,Z Vertex 4 {m}

OS:Surface,
  {eacd6768-7153-44a3-8d03-bf06d85c91f3}, !- Handle
  Surface 9,                              !- Name
  Wall,                                   !- Surface Type
  ,                                       !- Construction Name
  {a4392a3a-df5f-4296-8401-5eca2174d9a8}, !- Space Name
  Outdoors,                               !- Outside Boundary Condition
  ,                                       !- Outside Boundary Condition Object
  SunExposed,                             !- Sun Exposure
  WindExposed,                            !- Wind Exposure
  ,                                       !- View Factor to Ground
  ,                                       !- Number of Vertices
  13.6310703908387, 6.81553519541936, 2.4384, !- X,Y,Z Vertex 1 {m}
  13.6310703908387, 6.81553519541936, 0,  !- X,Y,Z Vertex 2 {m}
  0, 6.81553519541936, 0,                 !- X,Y,Z Vertex 3 {m}
  0, 6.81553519541936, 2.4384;            !- X,Y,Z Vertex 4 {m}

OS:Surface,
  {2816ab59-cb10-425f-ae45-a264a6ba370d}, !- Handle
  Surface 10,                             !- Name
  Wall,                                   !- Surface Type
  ,                                       !- Construction Name
  {a4392a3a-df5f-4296-8401-5eca2174d9a8}, !- Space Name
  Outdoors,                               !- Outside Boundary Condition
  ,                                       !- Outside Boundary Condition Object
  SunExposed,                             !- Sun Exposure
  WindExposed,                            !- Wind Exposure
  ,                                       !- View Factor to Ground
  ,                                       !- Number of Vertices
  13.6310703908387, 0, 2.4384,            !- X,Y,Z Vertex 1 {m}
  13.6310703908387, 0, 0,                 !- X,Y,Z Vertex 2 {m}
  13.6310703908387, 6.81553519541936, 0,  !- X,Y,Z Vertex 3 {m}
  13.6310703908387, 6.81553519541936, 2.4384; !- X,Y,Z Vertex 4 {m}

OS:Surface,
  {a1f5f2d2-159c-4821-8086-385c27aa996a}, !- Handle
  Surface 11,                             !- Name
  Wall,                                   !- Surface Type
  ,                                       !- Construction Name
  {a4392a3a-df5f-4296-8401-5eca2174d9a8}, !- Space Name
  Outdoors,                               !- Outside Boundary Condition
  ,                                       !- Outside Boundary Condition Object
  SunExposed,                             !- Sun Exposure
  WindExposed,                            !- Wind Exposure
  ,                                       !- View Factor to Ground
  ,                                       !- Number of Vertices
  0, 0, 2.4384,                           !- X,Y,Z Vertex 1 {m}
  0, 0, 0,                                !- X,Y,Z Vertex 2 {m}
  13.6310703908387, 0, 0,                 !- X,Y,Z Vertex 3 {m}
  13.6310703908387, 0, 2.4384;            !- X,Y,Z Vertex 4 {m}

OS:Surface,
  {2be41a45-5cea-48d0-a2b5-7d7c182ffd74}, !- Handle
  Surface 12,                             !- Name
  RoofCeiling,                            !- Surface Type
  ,                                       !- Construction Name
  {a4392a3a-df5f-4296-8401-5eca2174d9a8}, !- Space Name
  Surface,                                !- Outside Boundary Condition
  {fef21319-5dd8-46f0-9150-571385323b1c}, !- Outside Boundary Condition Object
  NoSun,                                  !- Sun Exposure
  NoWind,                                 !- Wind Exposure
  ,                                       !- View Factor to Ground
  ,                                       !- Number of Vertices
  13.6310703908387, 0, 2.4384,            !- X,Y,Z Vertex 1 {m}
  13.6310703908387, 6.81553519541936, 2.4384, !- X,Y,Z Vertex 2 {m}
  0, 6.81553519541936, 2.4384,            !- X,Y,Z Vertex 3 {m}
  0, 0, 2.4384;                           !- X,Y,Z Vertex 4 {m}

OS:Surface,
  {fef21319-5dd8-46f0-9150-571385323b1c}, !- Handle
  Surface 13,                             !- Name
  Floor,                                  !- Surface Type
  ,                                       !- Construction Name
  {0f1c3ec4-143a-4d5f-85b0-bdd1979c6af7}, !- Space Name
  Surface,                                !- Outside Boundary Condition
  {2be41a45-5cea-48d0-a2b5-7d7c182ffd74}, !- Outside Boundary Condition Object
  NoSun,                                  !- Sun Exposure
  NoWind,                                 !- Wind Exposure
  ,                                       !- View Factor to Ground
  ,                                       !- Number of Vertices
  0, 6.81553519541936, 0,                 !- X,Y,Z Vertex 1 {m}
  13.6310703908387, 6.81553519541936, 0,  !- X,Y,Z Vertex 2 {m}
  13.6310703908387, 0, 0,                 !- X,Y,Z Vertex 3 {m}
  0, 0, 0;                                !- X,Y,Z Vertex 4 {m}

OS:Surface,
  {8e9540c2-abbd-4870-83b9-8e4df0ce10e2}, !- Handle
  Surface 14,                             !- Name
  RoofCeiling,                            !- Surface Type
  ,                                       !- Construction Name
  {0f1c3ec4-143a-4d5f-85b0-bdd1979c6af7}, !- Space Name
  Outdoors,                               !- Outside Boundary Condition
  ,                                       !- Outside Boundary Condition Object
  SunExposed,                             !- Sun Exposure
  WindExposed,                            !- Wind Exposure
  ,                                       !- View Factor to Ground
  ,                                       !- Number of Vertices
  13.6310703908387, 3.40776759770968, 2.00868379885484, !- X,Y,Z Vertex 1 {m}
  0, 3.40776759770968, 2.00868379885484,  !- X,Y,Z Vertex 2 {m}
  0, 0, 0.3048,                           !- X,Y,Z Vertex 3 {m}
  13.6310703908387, 0, 0.3048;            !- X,Y,Z Vertex 4 {m}

OS:Surface,
  {931bf289-122d-4643-91f7-251101cf23a6}, !- Handle
  Surface 15,                             !- Name
  RoofCeiling,                            !- Surface Type
  ,                                       !- Construction Name
  {0f1c3ec4-143a-4d5f-85b0-bdd1979c6af7}, !- Space Name
  Outdoors,                               !- Outside Boundary Condition
  ,                                       !- Outside Boundary Condition Object
  SunExposed,                             !- Sun Exposure
  WindExposed,                            !- Wind Exposure
  ,                                       !- View Factor to Ground
  ,                                       !- Number of Vertices
  0, 3.40776759770968, 2.00868379885484,  !- X,Y,Z Vertex 1 {m}
  13.6310703908387, 3.40776759770968, 2.00868379885484, !- X,Y,Z Vertex 2 {m}
  13.6310703908387, 6.81553519541936, 0.3048, !- X,Y,Z Vertex 3 {m}
  0, 6.81553519541936, 0.3048;            !- X,Y,Z Vertex 4 {m}

OS:Surface,
  {f301abe8-5e68-4934-a178-b87e78f8336d}, !- Handle
  Surface 16,                             !- Name
  Wall,                                   !- Surface Type
  ,                                       !- Construction Name
  {0f1c3ec4-143a-4d5f-85b0-bdd1979c6af7}, !- Space Name
  Outdoors,                               !- Outside Boundary Condition
  ,                                       !- Outside Boundary Condition Object
  SunExposed,                             !- Sun Exposure
  WindExposed,                            !- Wind Exposure
  ,                                       !- View Factor to Ground
  ,                                       !- Number of Vertices
  0, 3.40776759770968, 1.70388379885484,  !- X,Y,Z Vertex 1 {m}
  0, 6.81553519541936, 0,                 !- X,Y,Z Vertex 2 {m}
  0, 0, 0;                                !- X,Y,Z Vertex 3 {m}

OS:Surface,
  {07d6fbcf-6482-4a78-b9ab-1b958667ea6c}, !- Handle
  Surface 17,                             !- Name
  Wall,                                   !- Surface Type
  ,                                       !- Construction Name
  {0f1c3ec4-143a-4d5f-85b0-bdd1979c6af7}, !- Space Name
  Outdoors,                               !- Outside Boundary Condition
  ,                                       !- Outside Boundary Condition Object
  SunExposed,                             !- Sun Exposure
  WindExposed,                            !- Wind Exposure
  ,                                       !- View Factor to Ground
  ,                                       !- Number of Vertices
  13.6310703908387, 3.40776759770968, 1.70388379885484, !- X,Y,Z Vertex 1 {m}
  13.6310703908387, 0, 0,                 !- X,Y,Z Vertex 2 {m}
  13.6310703908387, 6.81553519541936, 0;  !- X,Y,Z Vertex 3 {m}

OS:Space,
  {0f1c3ec4-143a-4d5f-85b0-bdd1979c6af7}, !- Handle
  unfinished attic space,                 !- Name
  {4d139393-5d1c-405d-bd8a-91a8ab010726}, !- Space Type Name
  ,                                       !- Default Construction Set Name
  ,                                       !- Default Schedule Set Name
  -0,                                     !- Direction of Relative North {deg}
  0,                                      !- X Origin {m}
  0,                                      !- Y Origin {m}
  4.8768,                                 !- Z Origin {m}
  ,                                       !- Building Story Name
  {798c7459-c3c5-4c68-86b4-23ecf35ccccd}; !- Thermal Zone Name

OS:ThermalZone,
  {798c7459-c3c5-4c68-86b4-23ecf35ccccd}, !- Handle
  unfinished attic zone,                  !- Name
  ,                                       !- Multiplier
  ,                                       !- Ceiling Height {m}
  ,                                       !- Volume {m3}
  ,                                       !- Floor Area {m2}
  ,                                       !- Zone Inside Convection Algorithm
  ,                                       !- Zone Outside Convection Algorithm
  ,                                       !- Zone Conditioning Equipment List Name
  {6542be5e-19b9-4b01-a2a2-d913bab405d8}, !- Zone Air Inlet Port List
  {a99d21e3-3810-4418-bd2a-cf4282ca654c}, !- Zone Air Exhaust Port List
  {6ad1f96a-c482-48c5-898c-cbf040913a8b}, !- Zone Air Node Name
  {ba04f8d4-f007-47d9-9d90-10533107f9be}, !- Zone Return Air Port List
  ,                                       !- Primary Daylighting Control Name
  ,                                       !- Fraction of Zone Controlled by Primary Daylighting Control
  ,                                       !- Secondary Daylighting Control Name
  ,                                       !- Fraction of Zone Controlled by Secondary Daylighting Control
  ,                                       !- Illuminance Map Name
  ,                                       !- Group Rendering Name
  ,                                       !- Thermostat Name
  No;                                     !- Use Ideal Air Loads

OS:Node,
  {c097b7ad-f9fe-4ab7-a321-1bf0759cad14}, !- Handle
  Node 2,                                 !- Name
  {6ad1f96a-c482-48c5-898c-cbf040913a8b}, !- Inlet Port
  ;                                       !- Outlet Port

OS:Connection,
  {6ad1f96a-c482-48c5-898c-cbf040913a8b}, !- Handle
  {d6b08b18-cace-4402-9e56-8789d02e40d0}, !- Name
  {798c7459-c3c5-4c68-86b4-23ecf35ccccd}, !- Source Object
  11,                                     !- Outlet Port
  {c097b7ad-f9fe-4ab7-a321-1bf0759cad14}, !- Target Object
  2;                                      !- Inlet Port

OS:PortList,
  {6542be5e-19b9-4b01-a2a2-d913bab405d8}, !- Handle