!- NOTE: Auto-generated from /test/osw_files/SFD_2000sqft_2story_FB_UA_Denver_MSHP.osw

OS:Version,
  {bc0f7b4f-cac1-499f-9b47-fdda0ae95c08}, !- Handle
  2.9.0;                                  !- Version Identifier

OS:SimulationControl,
  {a828dd93-b2c5-4d74-b3c7-cf3fcd0282d0}, !- Handle
  ,                                       !- Do Zone Sizing Calculation
  ,                                       !- Do System Sizing Calculation
  ,                                       !- Do Plant Sizing Calculation
  No;                                     !- Run Simulation for Sizing Periods

OS:Timestep,
  {e6564278-f428-4dcd-876d-1669b1b9959c}, !- Handle
  6;                                      !- Number of Timesteps per Hour

OS:ShadowCalculation,
  {0db212a7-7b22-41a0-815c-9f99e21eb36a}, !- Handle
  20,                                     !- Calculation Frequency
  200;                                    !- Maximum Figures in Shadow Overlap Calculations

OS:SurfaceConvectionAlgorithm:Outside,
  {0e457004-77db-4e96-9c99-c140bad853a6}, !- Handle
  DOE-2;                                  !- Algorithm

OS:SurfaceConvectionAlgorithm:Inside,
  {457126ba-b758-4da5-84d7-d507c913e91e}, !- Handle
  TARP;                                   !- Algorithm

OS:ZoneCapacitanceMultiplier:ResearchSpecial,
  {3a49dab9-3e69-4835-b538-3be36f40cd8c}, !- Handle
  ,                                       !- Temperature Capacity Multiplier
  15,                                     !- Humidity Capacity Multiplier
  ;                                       !- Carbon Dioxide Capacity Multiplier

OS:RunPeriod,
  {a5094cfb-232d-4790-b3f7-cfe90ed71ded}, !- Handle
  Run Period 1,                           !- Name
  1,                                      !- Begin Month
  1,                                      !- Begin Day of Month
  12,                                     !- End Month
  31,                                     !- End Day of Month
  ,                                       !- Use Weather File Holidays and Special Days
  ,                                       !- Use Weather File Daylight Saving Period
  ,                                       !- Apply Weekend Holiday Rule
  ,                                       !- Use Weather File Rain Indicators
  ,                                       !- Use Weather File Snow Indicators
  ;                                       !- Number of Times Runperiod to be Repeated

OS:YearDescription,
  {90636283-1d61-4ef0-ba8e-724dbe4e94d2}, !- Handle
  2007,                                   !- Calendar Year
  ,                                       !- Day of Week for Start Day
  ;                                       !- Is Leap Year

OS:ThermalZone,
  {6ad67e3c-8336-4290-81d0-6bb785451508}, !- Handle
  living zone,                            !- Name
  ,                                       !- Multiplier
  ,                                       !- Ceiling Height {m}
  ,                                       !- Volume {m3}
  ,                                       !- Floor Area {m2}
  ,                                       !- Zone Inside Convection Algorithm
  ,                                       !- Zone Outside Convection Algorithm
  ,                                       !- Zone Conditioning Equipment List Name
  {a84867ad-d26b-4995-9306-ab1f1e2a2f4b}, !- Zone Air Inlet Port List
  {47937134-541e-4e1b-a87d-00cf0e298ba3}, !- Zone Air Exhaust Port List
  {6309091c-70b0-4fde-9e98-a4fca31b8760}, !- Zone Air Node Name
  {c623f64c-c1fd-4508-869c-3da6c54f97b3}, !- Zone Return Air Port List
  ,                                       !- Primary Daylighting Control Name
  ,                                       !- Fraction of Zone Controlled by Primary Daylighting Control
  ,                                       !- Secondary Daylighting Control Name
  ,                                       !- Fraction of Zone Controlled by Secondary Daylighting Control
  ,                                       !- Illuminance Map Name
  ,                                       !- Group Rendering Name
  {9bd1f5ae-da96-4985-bf61-01a885688d12}, !- Thermostat Name
  No;                                     !- Use Ideal Air Loads

OS:Node,
  {d5d2790c-81d9-4ac1-941e-583e2c2affcc}, !- Handle
  Node 1,                                 !- Name
  {6309091c-70b0-4fde-9e98-a4fca31b8760}, !- Inlet Port
  ;                                       !- Outlet Port

OS:Connection,
  {6309091c-70b0-4fde-9e98-a4fca31b8760}, !- Handle
  {3e099b9e-d065-4dc0-b348-2ba19ca3bc59}, !- Name
  {6ad67e3c-8336-4290-81d0-6bb785451508}, !- Source Object
  11,                                     !- Outlet Port
  {d5d2790c-81d9-4ac1-941e-583e2c2affcc}, !- Target Object
  2;                                      !- Inlet Port

OS:PortList,
  {a84867ad-d26b-4995-9306-ab1f1e2a2f4b}, !- Handle
  {4eee1257-a458-4056-bf1c-494557971f8c}, !- Name
  {6ad67e3c-8336-4290-81d0-6bb785451508}, !- HVAC Component
  {6af436d0-f490-4da8-ae93-e865ed20386a}, !- Port 1
  {979290c9-e701-4f06-9e57-06db84d348a8}; !- Port 2

OS:PortList,
  {47937134-541e-4e1b-a87d-00cf0e298ba3}, !- Handle
  {b54b6706-878b-4a59-9d7a-1c6ce1b35157}, !- Name
  {6ad67e3c-8336-4290-81d0-6bb785451508}; !- HVAC Component

OS:PortList,
  {c623f64c-c1fd-4508-869c-3da6c54f97b3}, !- Handle
  {8aac15a6-893c-42d7-b99d-8303e9c2c52d}, !- Name
  {6ad67e3c-8336-4290-81d0-6bb785451508}, !- HVAC Component
  {1bea69e2-5a72-4fd9-b636-05db4b33520e}, !- Port 1
  {af2795d2-b136-4d8e-9f90-c4b116bb0878}; !- Port 2

OS:Sizing:Zone,
  {aec46026-5e84-469a-82be-4dae337926c5}, !- Handle
  {6ad67e3c-8336-4290-81d0-6bb785451508}, !- Zone or ZoneList Name
  SupplyAirTemperature,                   !- Zone Cooling Design Supply Air Temperature Input Method
  14,                                     !- Zone Cooling Design Supply Air Temperature {C}
  11.11,                                  !- Zone Cooling Design Supply Air Temperature Difference {deltaC}
  SupplyAirTemperature,                   !- Zone Heating Design Supply Air Temperature Input Method
  40,                                     !- Zone Heating Design Supply Air Temperature {C}
  11.11,                                  !- Zone Heating Design Supply Air Temperature Difference {deltaC}
  0.0085,                                 !- Zone Cooling Design Supply Air Humidity Ratio {kg-H2O/kg-air}
  0.008,                                  !- Zone Heating Design Supply Air Humidity Ratio {kg-H2O/kg-air}
  ,                                       !- Zone Heating Sizing Factor
  ,                                       !- Zone Cooling Sizing Factor
  DesignDay,                              !- Cooling Design Air Flow Method
  ,                                       !- Cooling Design Air Flow Rate {m3/s}
  ,                                       !- Cooling Minimum Air Flow per Zone Floor Area {m3/s-m2}
  ,                                       !- Cooling Minimum Air Flow {m3/s}
  ,                                       !- Cooling Minimum Air Flow Fraction
  DesignDay,                              !- Heating Design Air Flow Method
  ,                                       !- Heating Design Air Flow Rate {m3/s}
  ,                                       !- Heating Maximum Air Flow per Zone Floor Area {m3/s-m2}
  ,                                       !- Heating Maximum Air Flow {m3/s}
  ,                                       !- Heating Maximum Air Flow Fraction
  ,                                       !- Design Zone Air Distribution Effectiveness in Cooling Mode
  ,                                       !- Design Zone Air Distribution Effectiveness in Heating Mode
  No,                                     !- Account for Dedicated Outdoor Air System
  NeutralSupplyAir,                       !- Dedicated Outdoor Air System Control Strategy
  autosize,                               !- Dedicated Outdoor Air Low Setpoint Temperature for Design {C}
  autosize;                               !- Dedicated Outdoor Air High Setpoint Temperature for Design {C}

OS:ZoneHVAC:EquipmentList,
  {0c148a4b-1a43-4238-98f0-7bc05a7f86c6}, !- Handle
  Zone HVAC Equipment List 1,             !- Name
  {6ad67e3c-8336-4290-81d0-6bb785451508}, !- Thermal Zone
  SequentialLoad,                         !- Load Distribution Scheme
  {cbd5c956-e662-4e92-98bc-136961428afb}, !- Zone Equipment 1
  1,                                      !- Zone Equipment Cooling Sequence 1
  1,                                      !- Zone Equipment Heating or No-Load Sequence 1
  ,                                       !- Zone Equipment Sequential Cooling Fraction Schedule Name 1
  ,                                       !- Zone Equipment Sequential Heating Fraction Schedule Name 1
  {2d39fea9-9933-4f84-82e0-0f2527ac008d}, !- Zone Equipment 2
  2,                                      !- Zone Equipment Cooling Sequence 2
  2,                                      !- Zone Equipment Heating or No-Load Sequence 2
  ,                                       !- Zone Equipment Sequential Cooling Fraction Schedule Name 2
  ;                                       !- Zone Equipment Sequential Heating Fraction Schedule Name 2

OS:ThermalZone,
  {56dd186f-4d14-4387-a1c8-3c3f12db2cc6}, !- Handle
  garage zone,                            !- Name
  ,                                       !- Multiplier
  ,                                       !- Ceiling Height {m}
  ,                                       !- Volume {m3}
  ,                                       !- Floor Area {m2}
  ,                                       !- Zone Inside Convection Algorithm
  ,                                       !- Zone Outside Convection Algorithm
  ,                                       !- Zone Conditioning Equipment List Name
  {f692407b-6bb5-4ac9-9b8b-e81fe2d09686}, !- Zone Air Inlet Port List
  {2a5760a6-d2ce-4cf6-b312-d81065c57a89}, !- Zone Air Exhaust Port List
  {46db926d-e626-444a-b126-eae97f3d20de}, !- Zone Air Node Name
  {9dc47fe2-b66b-4231-b712-575025da20e5}, !- Zone Return Air Port List
  ,                                       !- Primary Daylighting Control Name
  ,                                       !- Fraction of Zone Controlled by Primary Daylighting Control
  ,                                       !- Secondary Daylighting Control Name
  ,                                       !- Fraction of Zone Controlled by Secondary Daylighting Control
  ,                                       !- Illuminance Map Name
  ,                                       !- Group Rendering Name
  ,                                       !- Thermostat Name
  No;                                     !- Use Ideal Air Loads

OS:Node,
  {8041bd57-8d6d-4a5f-b226-d488f1142096}, !- Handle
  Node 2,                                 !- Name
  {46db926d-e626-444a-b126-eae97f3d20de}, !- Inlet Port
  ;                                       !- Outlet Port

OS:Connection,
  {46db926d-e626-444a-b126-eae97f3d20de}, !- Handle
  {7a1920c2-df03-48fc-869b-c74ea47a1e17}, !- Name
  {56dd186f-4d14-4387-a1c8-3c3f12db2cc6}, !- Source Object
  11,                                     !- Outlet Port
  {8041bd57-8d6d-4a5f-b226-d488f1142096}, !- Target Object
  2;                                      !- Inlet Port

OS:PortList,
  {f692407b-6bb5-4ac9-9b8b-e81fe2d09686}, !- Handle
  {71988858-8241-48a9-991e-9694eee46872}, !- Name
  {56dd186f-4d14-4387-a1c8-3c3f12db2cc6}; !- HVAC Component

OS:PortList,
  {2a5760a6-d2ce-4cf6-b312-d81065c57a89}, !- Handle
  {e71e07ac-61e1-46a7-960e-f1eadcb34337}, !- Name
  {56dd186f-4d14-4387-a1c8-3c3f12db2cc6}; !- HVAC Component

OS:PortList,
  {9dc47fe2-b66b-4231-b712-575025da20e5}, !- Handle
  {23541c44-e3fe-48b3-b730-392acaeac849}, !- Name
  {56dd186f-4d14-4387-a1c8-3c3f12db2cc6}; !- HVAC Component

OS:Sizing:Zone,
  {eef6bf63-2490-4f94-86c3-1527a92ad3c7}, !- Handle
  {56dd186f-4d14-4387-a1c8-3c3f12db2cc6}, !- Zone or ZoneList Name
  SupplyAirTemperature,                   !- Zone Cooling Design Supply Air Temperature Input Method
  14,                                     !- Zone Cooling Design Supply Air Temperature {C}
  11.11,                                  !- Zone Cooling Design Supply Air Temperature Difference {deltaC}
  SupplyAirTemperature,                   !- Zone Heating Design Supply Air Temperature Input Method
  40,                                     !- Zone Heating Design Supply Air Temperature {C}
  11.11,                                  !- Zone Heating Design Supply Air Temperature Difference {deltaC}
  0.0085,                                 !- Zone Cooling Design Supply Air Humidity Ratio {kg-H2O/kg-air}
  0.008,                                  !- Zone Heating Design Supply Air Humidity Ratio {kg-H2O/kg-air}
  ,                                       !- Zone Heating Sizing Factor
  ,                                       !- Zone Cooling Sizing Factor
  DesignDay,                              !- Cooling Design Air Flow Method
  ,                                       !- Cooling Design Air Flow Rate {m3/s}
  ,                                       !- Cooling Minimum Air Flow per Zone Floor Area {m3/s-m2}
  ,                                       !- Cooling Minimum Air Flow {m3/s}
  ,                                       !- Cooling Minimum Air Flow Fraction
  DesignDay,                              !- Heating Design Air Flow Method
  ,                                       !- Heating Design Air Flow Rate {m3/s}
  ,                                       !- Heating Maximum Air Flow per Zone Floor Area {m3/s-m2}
  ,                                       !- Heating Maximum Air Flow {m3/s}
  ,                                       !- Heating Maximum Air Flow Fraction
  ,                                       !- Design Zone Air Distribution Effectiveness in Cooling Mode
  ,                                       !- Design Zone Air Distribution Effectiveness in Heating Mode
  No,                                     !- Account for Dedicated Outdoor Air System
  NeutralSupplyAir,                       !- Dedicated Outdoor Air System Control Strategy
  autosize,                               !- Dedicated Outdoor Air Low Setpoint Temperature for Design {C}
  autosize;                               !- Dedicated Outdoor Air High Setpoint Temperature for Design {C}

OS:ZoneHVAC:EquipmentList,
  {54ad39e7-20ae-4396-9240-074a72203c27}, !- Handle
  Zone HVAC Equipment List 2,             !- Name
  {56dd186f-4d14-4387-a1c8-3c3f12db2cc6}; !- Thermal Zone

OS:Space,
  {102fc3e0-5ff2-44e5-9744-e29e6185de4a}, !- Handle
  garage space,                           !- Name
  {2a4128b3-aae6-4bac-8782-83ebf7c4484a}, !- Space Type Name
  ,                                       !- Default Construction Set Name
  ,                                       !- Default Schedule Set Name
  -0,                                     !- Direction of Relative North {deg}
  0,                                      !- X Origin {m}
  0,                                      !- Y Origin {m}
  0,                                      !- Z Origin {m}
  ,                                       !- Building Story Name
  {56dd186f-4d14-4387-a1c8-3c3f12db2cc6}; !- Thermal Zone Name

OS:Surface,
  {25ef912c-8545-4f6b-a0d0-0855a9a4355d}, !- Handle
  Surface 1,                              !- Name
  Floor,                                  !- Surface Type
  ,                                       !- Construction Name
  {102fc3e0-5ff2-44e5-9744-e29e6185de4a}, !- Space Name
  Foundation,                             !- Outside Boundary Condition
  ,                                       !- Outside Boundary Condition Object
  NoSun,                                  !- Sun Exposure
  NoWind,                                 !- Wind Exposure
  ,                                       !- View Factor to Ground
  ,                                       !- Number of Vertices
  5.57695129776527, -3.048, 0,            !- X,Y,Z Vertex 1 {m}
  5.57695129776527, 3.048, 0,             !- X,Y,Z Vertex 2 {m}
  11.6729512977653, 3.048, 0,             !- X,Y,Z Vertex 3 {m}
  11.6729512977653, -3.048, 0;            !- X,Y,Z Vertex 4 {m}

OS:Surface,
  {64a95010-ce7f-4499-8de3-e2d6a6155f31}, !- Handle
  Surface 2,                              !- Name
  Wall,                                   !- Surface Type
  ,                                       !- Construction Name
  {102fc3e0-5ff2-44e5-9744-e29e6185de4a}, !- Space Name
  Surface,                                !- Outside Boundary Condition
  {4be1bce2-1fb3-4b34-b9dc-874d6d75e400}, !- Outside Boundary Condition Object
  NoSun,                                  !- Sun Exposure
  NoWind,                                 !- Wind Exposure
  ,                                       !- View Factor to Ground
  ,                                       !- Number of Vertices
  5.57695129776527, 3.048, 2.4384,        !- X,Y,Z Vertex 1 {m}
  5.57695129776527, 3.048, 0,             !- X,Y,Z Vertex 2 {m}
  5.57695129776527, 0, 0,                 !- X,Y,Z Vertex 3 {m}
  5.57695129776527, 0, 2.4384;            !- X,Y,Z Vertex 4 {m}

OS:Surface,
  {4b1dbcd9-b008-483f-99b9-5d45576d286f}, !- Handle
  Surface 3,                              !- Name
  Wall,                                   !- Surface Type
  ,                                       !- Construction Name
  {102fc3e0-5ff2-44e5-9744-e29e6185de4a}, !- Space Name
  Surface,                                !- Outside Boundary Condition
  {12490ecf-05e7-4f4c-81f6-33dd1d1c7ca1}, !- Outside Boundary Condition Object
  NoSun,                                  !- Sun Exposure
  NoWind,                                 !- Wind Exposure
  ,                                       !- View Factor to Ground
  ,                                       !- Number of Vertices
  11.6729512977653, 3.048, 2.4384,        !- X,Y,Z Vertex 1 {m}
  11.6729512977653, 3.048, 0,             !- X,Y,Z Vertex 2 {m}
  5.57695129776527, 3.048, 0,             !- X,Y,Z Vertex 3 {m}
  5.57695129776527, 3.048, 2.4384;        !- X,Y,Z Vertex 4 {m}

OS:Surface,
  {cda9e511-a19c-4912-bb95-04ea28b283e8}, !- Handle
  Surface 4,                              !- Name
  Wall,                                   !- Surface Type
  ,                                       !- Construction Name
  {102fc3e0-5ff2-44e5-9744-e29e6185de4a}, !- Space Name
  Outdoors,                               !- Outside Boundary Condition
  ,                                       !- Outside Boundary Condition Object
  SunExposed,                             !- Sun Exposure
  WindExposed,                            !- Wind Exposure
  ,                                       !- View Factor to Ground
  ,                                       !- Number of Vertices
  11.6729512977653, -3.048, 2.4384,       !- X,Y,Z Vertex 1 {m}
  11.6729512977653, -3.048, 0,            !- X,Y,Z Vertex 2 {m}
  11.6729512977653, 3.048, 0,             !- X,Y,Z Vertex 3 {m}
  11.6729512977653, 3.048, 2.4384;        !- X,Y,Z Vertex 4 {m}

OS:Surface,
  {a59742b3-7950-4e1d-8455-84367e651771}, !- Handle
  Surface 5,                              !- Name
  Wall,                                   !- Surface Type
  ,                                       !- Construction Name
  {102fc3e0-5ff2-44e5-9744-e29e6185de4a}, !- Space Name
  Outdoors,                               !- Outside Boundary Condition
  ,                                       !- Outside Boundary Condition Object
  SunExposed,                             !- Sun Exposure
  WindExposed,                            !- Wind Exposure
  ,                                       !- View Factor to Ground
  ,                                       !- Number of Vertices
  5.57695129776527, -3.048, 2.4384,       !- X,Y,Z Vertex 1 {m}
  5.57695129776527, -3.048, 0,            !- X,Y,Z Vertex 2 {m}
  11.6729512977653, -3.048, 0,            !- X,Y,Z Vertex 3 {m}
  11.6729512977653, -3.048, 2.4384;       !- X,Y,Z Vertex 4 {m}

OS:Surface,
  {42f89e7c-1a80-42bb-a99d-2659a664ce05}, !- Handle
  Surface 6,                              !- Name
  RoofCeiling,                            !- Surface Type
  ,                                       !- Construction Name
  {102fc3e0-5ff2-44e5-9744-e29e6185de4a}, !- Space Name
  Surface,                                !- Outside Boundary Condition
  {1ae4f515-13b7-4c0d-8ae0-94c237123b33}, !- Outside Boundary Condition Object
  NoSun,                                  !- Sun Exposure
  NoWind,                                 !- Wind Exposure
  ,                                       !- View Factor to Ground
  ,                                       !- Number of Vertices
  11.6729512977653, -3.048, 2.4384,       !- X,Y,Z Vertex 1 {m}
  11.6729512977653, 3.048, 2.4384,        !- X,Y,Z Vertex 2 {m}
  5.57695129776527, 3.048, 2.4384,        !- X,Y,Z Vertex 3 {m}
  5.57695129776527, -3.048, 2.4384;       !- X,Y,Z Vertex 4 {m}

OS:SpaceType,
  {2a4128b3-aae6-4bac-8782-83ebf7c4484a}, !- Handle
  Space Type 1,                           !- Name
  ,                                       !- Default Construction Set Name
  ,                                       !- Default Schedule Set Name
  ,                                       !- Group Rendering Name
  ,                                       !- Design Specification Outdoor Air Object Name
  ,                                       !- Standards Template
  ,                                       !- Standards Building Type
  garage;                                 !- Standards Space Type

OS:Space,
  {e6e42f11-80ac-49c2-94c2-21597515084e}, !- Handle
  living space,                           !- Name
  {604375de-f6df-4d4a-a86d-41b25bf2ff67}, !- Space Type Name
  ,                                       !- Default Construction Set Name
  ,                                       !- Default Schedule Set Name
  -0,                                     !- Direction of Relative North {deg}
  0,                                      !- X Origin {m}
  0,                                      !- Y Origin {m}
  0,                                      !- Z Origin {m}
  ,                                       !- Building Story Name
  {6ad67e3c-8336-4290-81d0-6bb785451508}, !- Thermal Zone Name
  ,                                       !- Part of Total Floor Area
  ,                                       !- Design Specification Outdoor Air Object Name
  {5ceaf757-269f-435d-b8b7-8f171158249a}; !- Building Unit Name

OS:Surface,
  {a7432c72-7f5e-4aa4-a195-e2bf6b36b65d}, !- Handle
  Surface 7,                              !- Name
  Floor,                                  !- Surface Type
  ,                                       !- Construction Name
  {e6e42f11-80ac-49c2-94c2-21597515084e}, !- Space Name
  Surface,                                !- Outside Boundary Condition
  {719b9805-872f-44ba-a9f9-a7e0c4be5424}, !- Outside Boundary Condition Object
  NoSun,                                  !- Sun Exposure
  NoWind,                                 !- Wind Exposure
  ,                                       !- View Factor to Ground
  ,                                       !- Number of Vertices
  0, 0, 0,                                !- X,Y,Z Vertex 1 {m}
  0, 5.83647564888264, 0,                 !- X,Y,Z Vertex 2 {m}
  11.6729512977653, 5.83647564888264, 0,  !- X,Y,Z Vertex 3 {m}
  11.6729512977653, 3.048, 0,             !- X,Y,Z Vertex 4 {m}
  5.57695129776527, 3.048, 0,             !- X,Y,Z Vertex 5 {m}
  5.57695129776527, 0, 0;                 !- X,Y,Z Vertex 6 {m}

OS:Surface,
  {cb225794-903f-49ec-9aa0-5ee6955b28b7}, !- Handle
  Surface 8,                              !- Name
  Wall,                                   !- Surface Type
  ,                                       !- Construction Name
  {e6e42f11-80ac-49c2-94c2-21597515084e}, !- Space Name
  Outdoors,                               !- Outside Boundary Condition
  ,                                       !- Outside Boundary Condition Object
  SunExposed,                             !- Sun Exposure
  WindExposed,                            !- Wind Exposure
  ,                                       !- View Factor to Ground
  ,                                       !- Number of Vertices
  0, 5.83647564888264, 2.4384,            !- X,Y,Z Vertex 1 {m}
  0, 5.83647564888264, 0,                 !- X,Y,Z Vertex 2 {m}
  0, 0, 0,                                !- X,Y,Z Vertex 3 {m}
  0, 0, 2.4384;                           !- X,Y,Z Vertex 4 {m}

OS:Surface,
  {415b2d1f-3f01-46a7-b785-a3d2ab764f2d}, !- Handle
  Surface 9,                              !- Name
  Wall,                                   !- Surface Type
  ,                                       !- Construction Name
  {e6e42f11-80ac-49c2-94c2-21597515084e}, !- Space Name
  Outdoors,                               !- Outside Boundary Condition
  ,                                       !- Outside Boundary Condition Object
  SunExposed,                             !- Sun Exposure
  WindExposed,                            !- Wind Exposure
  ,                                       !- View Factor to Ground
  ,                                       !- Number of Vertices
  11.6729512977653, 5.83647564888264, 2.4384, !- X,Y,Z Vertex 1 {m}
  11.6729512977653, 5.83647564888264, 0,  !- X,Y,Z Vertex 2 {m}
  0, 5.83647564888264, 0,                 !- X,Y,Z Vertex 3 {m}
  0, 5.83647564888264, 2.4384;            !- X,Y,Z Vertex 4 {m}

OS:Surface,
  {ac903c1c-b68f-4f48-98e0-cac1c769657c}, !- Handle
  Surface 10,                             !- Name
  Wall,                                   !- Surface Type
  ,                                       !- Construction Name
  {e6e42f11-80ac-49c2-94c2-21597515084e}, !- Space Name
  Outdoors,                               !- Outside Boundary Condition
  ,                                       !- Outside Boundary Condition Object
  SunExposed,                             !- Sun Exposure
  WindExposed,                            !- Wind Exposure
  ,                                       !- View Factor to Ground
  ,                                       !- Number of Vertices
  11.6729512977653, 3.048, 2.4384,        !- X,Y,Z Vertex 1 {m}
  11.6729512977653, 3.048, 0,             !- X,Y,Z Vertex 2 {m}
  11.6729512977653, 5.83647564888264, 0,  !- X,Y,Z Vertex 3 {m}
  11.6729512977653, 5.83647564888264, 2.4384; !- X,Y,Z Vertex 4 {m}

OS:Surface,
  {12490ecf-05e7-4f4c-81f6-33dd1d1c7ca1}, !- Handle
  Surface 11,                             !- Name
  Wall,                                   !- Surface Type
  ,                                       !- Construction Name
  {e6e42f11-80ac-49c2-94c2-21597515084e}, !- Space Name
  Surface,                                !- Outside Boundary Condition
  {4b1dbcd9-b008-483f-99b9-5d45576d286f}, !- Outside Boundary Condition Object
  NoSun,                                  !- Sun Exposure
  NoWind,                                 !- Wind Exposure
  ,                                       !- View Factor to Ground
  ,                                       !- Number of Vertices
  5.57695129776527, 3.048, 2.4384,        !- X,Y,Z Vertex 1 {m}
  5.57695129776527, 3.048, 0,             !- X,Y,Z Vertex 2 {m}
  11.6729512977653, 3.048, 0,             !- X,Y,Z Vertex 3 {m}
  11.6729512977653, 3.048, 2.4384;        !- X,Y,Z Vertex 4 {m}

OS:Surface,
  {4be1bce2-1fb3-4b34-b9dc-874d6d75e400}, !- Handle
  Surface 12,                             !- Name
  Wall,                                   !- Surface Type
  ,                                       !- Construction Name
  {e6e42f11-80ac-49c2-94c2-21597515084e}, !- Space Name
  Surface,                                !- Outside Boundary Condition
  {64a95010-ce7f-4499-8de3-e2d6a6155f31}, !- Outside Boundary Condition Object
  NoSun,                                  !- Sun Exposure
  NoWind,                                 !- Wind Exposure
  ,                                       !- View Factor to Ground
  ,                                       !- Number of Vertices
  5.57695129776527, 0, 2.4384,            !- X,Y,Z Vertex 1 {m}
  5.57695129776527, 0, 0,                 !- X,Y,Z Vertex 2 {m}
  5.57695129776527, 3.048, 0,             !- X,Y,Z Vertex 3 {m}
  5.57695129776527, 3.048, 2.4384;        !- X,Y,Z Vertex 4 {m}

OS:Surface,
  {c9825d87-6e74-46a5-b68c-9be73e7b0102}, !- Handle
  Surface 13,                             !- Name
  Wall,                                   !- Surface Type
  ,                                       !- Construction Name
  {e6e42f11-80ac-49c2-94c2-21597515084e}, !- Space Name
  Outdoors,                               !- Outside Boundary Condition
  ,                                       !- Outside Boundary Condition Object
  SunExposed,                             !- Sun Exposure
  WindExposed,                            !- Wind Exposure
  ,                                       !- View Factor to Ground
  ,                                       !- Number of Vertices
  0, 0, 2.4384,                           !- X,Y,Z Vertex 1 {m}
  0, 0, 0,                                !- X,Y,Z Vertex 2 {m}
  5.57695129776527, 0, 0,                 !- X,Y,Z Vertex 3 {m}
  5.57695129776527, 0, 2.4384;            !- X,Y,Z Vertex 4 {m}

OS:Surface,
  {777b6055-c74e-43d9-b687-5edddb9178c0}, !- Handle
  Surface 14,                             !- Name
  RoofCeiling,                            !- Surface Type
  ,                                       !- Construction Name
  {e6e42f11-80ac-49c2-94c2-21597515084e}, !- Space Name
  Surface,                                !- Outside Boundary Condition
  {b3471cda-a85c-4077-a985-176f65ae40e0}, !- Outside Boundary Condition Object
  NoSun,                                  !- Sun Exposure
  NoWind,                                 !- Wind Exposure
  ,                                       !- View Factor to Ground
  ,                                       !- Number of Vertices
  5.57695129776527, 0, 2.4384,            !- X,Y,Z Vertex 1 {m}
  5.57695129776527, 3.048, 2.4384,        !- X,Y,Z Vertex 2 {m}