!- NOTE: Auto-generated from /test/osw_files/SFD_2000sqft_2story_SL_FA_FlatRoof.osw

OS:Version,
  {98fef029-7f4a-43b7-ac2b-d294e9605f99}, !- Handle
  2.9.0;                                  !- Version Identifier

OS:SimulationControl,
  {4c707052-1eb2-4847-80b0-c7bf34d79bb4}, !- Handle
  ,                                       !- Do Zone Sizing Calculation
  ,                                       !- Do System Sizing Calculation
  ,                                       !- Do Plant Sizing Calculation
  No;                                     !- Run Simulation for Sizing Periods

OS:Timestep,
  {874463c6-29a8-455c-99c6-86562e666f0e}, !- Handle
  6;                                      !- Number of Timesteps per Hour

OS:ShadowCalculation,
  {1a2f43c5-d13f-4336-bf55-0be4a0ae2353}, !- Handle
  20,                                     !- Calculation Frequency
  200;                                    !- Maximum Figures in Shadow Overlap Calculations

OS:SurfaceConvectionAlgorithm:Outside,
  {baaa14b3-9769-4294-8885-572414e3c1d6}, !- Handle
  DOE-2;                                  !- Algorithm

OS:SurfaceConvectionAlgorithm:Inside,
  {08be3359-ffa2-427d-b5c5-7106d9879b57}, !- Handle
  TARP;                                   !- Algorithm

OS:ZoneCapacitanceMultiplier:ResearchSpecial,
  {9d6743eb-e415-4b4a-af55-e68d81fa228a}, !- Handle
  ,                                       !- Temperature Capacity Multiplier
  15,                                     !- Humidity Capacity Multiplier
  ;                                       !- Carbon Dioxide Capacity Multiplier

OS:RunPeriod,
  {79a6f61b-83c7-446c-8c9f-4ae270e8622f}, !- Handle
  Run Period 1,                           !- Name
  1,                                      !- Begin Month
  1,                                      !- Begin Day of Month
  12,                                     !- End Month
  31,                                     !- End Day of Month
  ,                                       !- Use Weather File Holidays and Special Days
  ,                                       !- Use Weather File Daylight Saving Period
  ,                                       !- Apply Weekend Holiday Rule
  ,                                       !- Use Weather File Rain Indicators
  ,                                       !- Use Weather File Snow Indicators
  ;                                       !- Number of Times Runperiod to be Repeated

OS:YearDescription,
  {32ba7319-e139-4f5f-80aa-2f3b22e7bb37}, !- Handle
  2007,                                   !- Calendar Year
  ,                                       !- Day of Week for Start Day
  ;                                       !- Is Leap Year

OS:ThermalZone,
  {f9b07edf-d7dd-4965-9a8e-2dbce80f3476}, !- Handle
  living zone,                            !- Name
  ,                                       !- Multiplier
  ,                                       !- Ceiling Height {m}
  ,                                       !- Volume {m3}
  ,                                       !- Floor Area {m2}
  ,                                       !- Zone Inside Convection Algorithm
  ,                                       !- Zone Outside Convection Algorithm
  ,                                       !- Zone Conditioning Equipment List Name
  {e1d54422-96f5-4b2a-9520-b7287bf35a05}, !- Zone Air Inlet Port List
  {e76ab0e7-4578-4801-ad91-f6236b4fd54b}, !- Zone Air Exhaust Port List
  {99ccb0a7-1b2e-4f12-bbe1-9eece81cddfe}, !- Zone Air Node Name
  {e79cd79a-2c9e-44b6-b76b-66db095f7027}, !- Zone Return Air Port List
  ,                                       !- Primary Daylighting Control Name
  ,                                       !- Fraction of Zone Controlled by Primary Daylighting Control
  ,                                       !- Secondary Daylighting Control Name
  ,                                       !- Fraction of Zone Controlled by Secondary Daylighting Control
  ,                                       !- Illuminance Map Name
  ,                                       !- Group Rendering Name
  ,                                       !- Thermostat Name
  No;                                     !- Use Ideal Air Loads

OS:Node,
  {0fc55709-4150-47b3-b30b-da9d5f0d6d50}, !- Handle
  Node 1,                                 !- Name
  {99ccb0a7-1b2e-4f12-bbe1-9eece81cddfe}, !- Inlet Port
  ;                                       !- Outlet Port

OS:Connection,
  {99ccb0a7-1b2e-4f12-bbe1-9eece81cddfe}, !- Handle
  {2d0912cc-4e4e-468e-86dd-a9060a4707cc}, !- Name
  {f9b07edf-d7dd-4965-9a8e-2dbce80f3476}, !- Source Object
  11,                                     !- Outlet Port
  {0fc55709-4150-47b3-b30b-da9d5f0d6d50}, !- Target Object
  2;                                      !- Inlet Port

OS:PortList,
  {e1d54422-96f5-4b2a-9520-b7287bf35a05}, !- Handle
  {0661e085-1984-4e0f-9d62-5706a8e60333}, !- Name
  {f9b07edf-d7dd-4965-9a8e-2dbce80f3476}; !- HVAC Component

OS:PortList,
  {e76ab0e7-4578-4801-ad91-f6236b4fd54b}, !- Handle
  {b9489b94-9eeb-4264-a182-ee0cd0326960}, !- Name
  {f9b07edf-d7dd-4965-9a8e-2dbce80f3476}; !- HVAC Component

OS:PortList,
  {e79cd79a-2c9e-44b6-b76b-66db095f7027}, !- Handle
  {60ff0370-172a-4665-9c72-d591a61fb95e}, !- Name
  {f9b07edf-d7dd-4965-9a8e-2dbce80f3476}; !- HVAC Component

OS:Sizing:Zone,
  {c67abfc0-9dba-43d1-8333-11bee8393fc3}, !- Handle
  {f9b07edf-d7dd-4965-9a8e-2dbce80f3476}, !- Zone or ZoneList Name
  SupplyAirTemperature,                   !- Zone Cooling Design Supply Air Temperature Input Method
  14,                                     !- Zone Cooling Design Supply Air Temperature {C}
  11.11,                                  !- Zone Cooling Design Supply Air Temperature Difference {deltaC}
  SupplyAirTemperature,                   !- Zone Heating Design Supply Air Temperature Input Method
  40,                                     !- Zone Heating Design Supply Air Temperature {C}
  11.11,                                  !- Zone Heating Design Supply Air Temperature Difference {deltaC}
  0.0085,                                 !- Zone Cooling Design Supply Air Humidity Ratio {kg-H2O/kg-air}
  0.008,                                  !- Zone Heating Design Supply Air Humidity Ratio {kg-H2O/kg-air}
  ,                                       !- Zone Heating Sizing Factor
  ,                                       !- Zone Cooling Sizing Factor
  DesignDay,                              !- Cooling Design Air Flow Method
  ,                                       !- Cooling Design Air Flow Rate {m3/s}
  ,                                       !- Cooling Minimum Air Flow per Zone Floor Area {m3/s-m2}
  ,                                       !- Cooling Minimum Air Flow {m3/s}
  ,                                       !- Cooling Minimum Air Flow Fraction
  DesignDay,                              !- Heating Design Air Flow Method
  ,                                       !- Heating Design Air Flow Rate {m3/s}
  ,                                       !- Heating Maximum Air Flow per Zone Floor Area {m3/s-m2}
  ,                                       !- Heating Maximum Air Flow {m3/s}
  ,                                       !- Heating Maximum Air Flow Fraction
  ,                                       !- Design Zone Air Distribution Effectiveness in Cooling Mode
  ,                                       !- Design Zone Air Distribution Effectiveness in Heating Mode
  No,                                     !- Account for Dedicated Outdoor Air System
  NeutralSupplyAir,                       !- Dedicated Outdoor Air System Control Strategy
  autosize,                               !- Dedicated Outdoor Air Low Setpoint Temperature for Design {C}
  autosize;                               !- Dedicated Outdoor Air High Setpoint Temperature for Design {C}

OS:ZoneHVAC:EquipmentList,
  {75c2bc33-9b58-4f89-85c9-c118d0498f6d}, !- Handle
  Zone HVAC Equipment List 1,             !- Name
  {f9b07edf-d7dd-4965-9a8e-2dbce80f3476}; !- Thermal Zone

OS:Space,
  {1edb9094-929c-41bd-93a7-5b89576c21f7}, !- Handle
  living space,                           !- Name
  {32ff5ba2-69f9-4b87-a831-5e8396b84c4d}, !- Space Type Name
  ,                                       !- Default Construction Set Name
  ,                                       !- Default Schedule Set Name
  -0,                                     !- Direction of Relative North {deg}
  0,                                      !- X Origin {m}
  0,                                      !- Y Origin {m}
  0,                                      !- Z Origin {m}
  ,                                       !- Building Story Name
  {f9b07edf-d7dd-4965-9a8e-2dbce80f3476}, !- Thermal Zone Name
  ,                                       !- Part of Total Floor Area
  ,                                       !- Design Specification Outdoor Air Object Name
  {927659e6-3715-463d-ac59-0b5e0d978219}; !- Building Unit Name

OS:Surface,
  {3bc1d15e-ecab-48e5-802a-0d5cb3004f00}, !- Handle
  Surface 1,                              !- Name
  Floor,                                  !- Surface Type
  ,                                       !- Construction Name
  {1edb9094-929c-41bd-93a7-5b89576c21f7}, !- Space Name
  Foundation,                             !- Outside Boundary Condition
  ,                                       !- Outside Boundary Condition Object
  NoSun,                                  !- Sun Exposure
  NoWind,                                 !- Wind Exposure
  ,                                       !- View Factor to Ground
  ,                                       !- Number of Vertices
  0, 0, 0,                                !- X,Y,Z Vertex 1 {m}
  0, 5.56486118425249, 0,                 !- X,Y,Z Vertex 2 {m}
  11.129722368505, 5.56486118425249, 0,   !- X,Y,Z Vertex 3 {m}
  11.129722368505, 0, 0;                  !- X,Y,Z Vertex 4 {m}

OS:Surface,
  {11c8934a-211c-4167-b695-a38aaa6c5dd1}, !- Handle
  Surface 2,                              !- Name
  Wall,                                   !- Surface Type
  ,                                       !- Construction Name
  {1edb9094-929c-41bd-93a7-5b89576c21f7}, !- Space Name
  Outdoors,                               !- Outside Boundary Condition
  ,                                       !- Outside Boundary Condition Object
  SunExposed,                             !- Sun Exposure
  WindExposed,                            !- Wind Exposure
  ,                                       !- View Factor to Ground
  ,                                       !- Number of Vertices
  0, 5.56486118425249, 2.4384,            !- X,Y,Z Vertex 1 {m}
  0, 5.56486118425249, 0,                 !- X,Y,Z Vertex 2 {m}
  0, 0, 0,                                !- X,Y,Z Vertex 3 {m}
  0, 0, 2.4384;                           !- X,Y,Z Vertex 4 {m}

OS:Surface,
  {262f268d-9266-43b0-8a17-71909cbd0d3e}, !- Handle
  Surface 3,                              !- Name
  Wall,                                   !- Surface Type
  ,                                       !- Construction Name
  {1edb9094-929c-41bd-93a7-5b89576c21f7}, !- Space Name
  Outdoors,                               !- Outside Boundary Condition
  ,                                       !- Outside Boundary Condition Object
  SunExposed,                             !- Sun Exposure
  WindExposed,                            !- Wind Exposure
  ,                                       !- View Factor to Ground
  ,                                       !- Number of Vertices
  11.129722368505, 5.56486118425249, 2.4384, !- X,Y,Z Vertex 1 {m}
  11.129722368505, 5.56486118425249, 0,   !- X,Y,Z Vertex 2 {m}
  0, 5.56486118425249, 0,                 !- X,Y,Z Vertex 3 {m}
  0, 5.56486118425249, 2.4384;            !- X,Y,Z Vertex 4 {m}

OS:Surface,
  {dc50237b-4ff0-4269-a224-31ed8cbfeaa8}, !- Handle
  Surface 4,                              !- Name
  Wall,                                   !- Surface Type
  ,                                       !- Construction Name
  {1edb9094-929c-41bd-93a7-5b89576c21f7}, !- Space Name
  Outdoors,                               !- Outside Boundary Condition
  ,                                       !- Outside Boundary Condition Object
  SunExposed,                             !- Sun Exposure
  WindExposed,                            !- Wind Exposure
  ,                                       !- View Factor to Ground
  ,                                       !- Number of Vertices
  11.129722368505, 0, 2.4384,             !- X,Y,Z Vertex 1 {m}
  11.129722368505, 0, 0,                  !- X,Y,Z Vertex 2 {m}
  11.129722368505, 5.56486118425249, 0,   !- X,Y,Z Vertex 3 {m}
  11.129722368505, 5.56486118425249, 2.4384; !- X,Y,Z Vertex 4 {m}

OS:Surface,
  {05e9afda-fc9f-4c0d-ad1f-f5eec52377a0}, !- Handle
  Surface 5,                              !- Name
  Wall,                                   !- Surface Type
  ,                                       !- Construction Name
  {1edb9094-929c-41bd-93a7-5b89576c21f7}, !- Space Name
  Outdoors,                               !- Outside Boundary Condition
  ,                                       !- Outside Boundary Condition Object
  SunExposed,                             !- Sun Exposure
  WindExposed,                            !- Wind Exposure
  ,                                       !- View Factor to Ground
  ,                                       !- Number of Vertices
  0, 0, 2.4384,                           !- X,Y,Z Vertex 1 {m}
  0, 0, 0,                                !- X,Y,Z Vertex 2 {m}
  11.129722368505, 0, 0,                  !- X,Y,Z Vertex 3 {m}
  11.129722368505, 0, 2.4384;             !- X,Y,Z Vertex 4 {m}

OS:Surface,
  {333a56aa-57a7-4d5e-8213-592e9d16172a}, !- Handle
  Surface 6,                              !- Name
  RoofCeiling,                            !- Surface Type
  ,                                       !- Construction Name
  {1edb9094-929c-41bd-93a7-5b89576c21f7}, !- Space Name
  Surface,                                !- Outside Boundary Condition
  {13d9b916-7d5b-4a43-856b-5644b245711d}, !- Outside Boundary Condition Object
  NoSun,                                  !- Sun Exposure
  NoWind,                                 !- Wind Exposure
  ,                                       !- View Factor to Ground
  ,                                       !- Number of Vertices
  11.129722368505, 0, 2.4384,             !- X,Y,Z Vertex 1 {m}
  11.129722368505, 5.56486118425249, 2.4384, !- X,Y,Z Vertex 2 {m}
  0, 5.56486118425249, 2.4384,            !- X,Y,Z Vertex 3 {m}
  0, 0, 2.4384;                           !- X,Y,Z Vertex 4 {m}

OS:SpaceType,
  {32ff5ba2-69f9-4b87-a831-5e8396b84c4d}, !- Handle
  Space Type 1,                           !- Name
  ,                                       !- Default Construction Set Name
  ,                                       !- Default Schedule Set Name
  ,                                       !- Group Rendering Name
  ,                                       !- Design Specification Outdoor Air Object Name
  ,                                       !- Standards Template
  ,                                       !- Standards Building Type
  living;                                 !- Standards Space Type

OS:Space,
  {5a0d7e19-c2a1-4e2a-9650-9a1a2d70b790}, !- Handle
  living space|story 2,                   !- Name
  {32ff5ba2-69f9-4b87-a831-5e8396b84c4d}, !- Space Type Name
  ,                                       !- Default Construction Set Name
  ,                                       !- Default Schedule Set Name
  -0,                                     !- Direction of Relative North {deg}
  0,                                      !- X Origin {m}
  0,                                      !- Y Origin {m}
  2.4384,                                 !- Z Origin {m}
  ,                                       !- Building Story Name
  {f9b07edf-d7dd-4965-9a8e-2dbce80f3476}, !- Thermal Zone Name
  ,                                       !- Part of Total Floor Area
  ,                                       !- Design Specification Outdoor Air Object Name
  {927659e6-3715-463d-ac59-0b5e0d978219}; !- Building Unit Name

OS:Surface,
  {13d9b916-7d5b-4a43-856b-5644b245711d}, !- Handle
  Surface 7,                              !- Name
  Floor,                                  !- Surface Type
  ,                                       !- Construction Name
  {5a0d7e19-c2a1-4e2a-9650-9a1a2d70b790}, !- Space Name
  Surface,                                !- Outside Boundary Condition
  {333a56aa-57a7-4d5e-8213-592e9d16172a}, !- Outside Boundary Condition Object
  NoSun,                                  !- Sun Exposure
  NoWind,                                 !- Wind Exposure
  ,                                       !- View Factor to Ground
  ,                                       !- Number of Vertices
  0, 0, 0,                                !- X,Y,Z Vertex 1 {m}
  0, 5.56486118425249, 0,                 !- X,Y,Z Vertex 2 {m}
  11.129722368505, 5.56486118425249, 0,   !- X,Y,Z Vertex 3 {m}
  11.129722368505, 0, 0;                  !- X,Y,Z Vertex 4 {m}

OS:Surface,
  {c11fcf7f-3c28-40e5-8a0c-4a97a50fcad6}, !- Handle
  Surface 8,                              !- Name
  Wall,                                   !- Surface Type
  ,                                       !- Construction Name
  {5a0d7e19-c2a1-4e2a-9650-9a1a2d70b790}, !- Space Name
  Outdoors,                               !- Outside Boundary Condition
  ,                                       !- Outside Boundary Condition Object
  SunExposed,                             !- Sun Exposure
  WindExposed,                            !- Wind Exposure
  ,                                       !- View Factor to Ground
  ,                                       !- Number of Vertices
  0, 5.56486118425249, 2.4384,            !- X,Y,Z Vertex 1 {m}
  0, 5.56486118425249, 0,                 !- X,Y,Z Vertex 2 {m}
  0, 0, 0,                                !- X,Y,Z Vertex 3 {m}
  0, 0, 2.4384;                           !- X,Y,Z Vertex 4 {m}

OS:Surface,
  {351b6df2-3260-4886-ba38-15d3725fc464}, !- Handle
  Surface 9,                              !- Name
  Wall,                                   !- Surface Type
  ,                                       !- Construction Name
  {5a0d7e19-c2a1-4e2a-9650-9a1a2d70b790}, !- Space Name
  Outdoors,                               !- Outside Boundary Condition
  ,                                       !- Outside Boundary Condition Object
  SunExposed,                             !- Sun Exposure
  WindExposed,                            !- Wind Exposure
  ,                                       !- View Factor to Ground
  ,                                       !- Number of Vertices
  11.129722368505, 5.56486118425249, 2.4384, !- X,Y,Z Vertex 1 {m}
  11.129722368505, 5.56486118425249, 0,   !- X,Y,Z Vertex 2 {m}
  0, 5.56486118425249, 0,                 !- X,Y,Z Vertex 3 {m}
  0, 5.56486118425249, 2.4384;            !- X,Y,Z Vertex 4 {m}

OS:Surface,
  {2b0790e6-91b6-467a-8857-1bbf908c025d}, !- Handle
  Surface 10,                             !- Name
  Wall,                                   !- Surface Type
  ,                                       !- Construction Name
  {5a0d7e19-c2a1-4e2a-9650-9a1a2d70b790}, !- Space Name
  Outdoors,                               !- Outside Boundary Condition
  ,                                       !- Outside Boundary Condition Object
  SunExposed,                             !- Sun Exposure
  WindExposed,                            !- Wind Exposure
  ,                                       !- View Factor to Ground
  ,                                       !- Number of Vertices
  11.129722368505, 0, 2.4384,             !- X,Y,Z Vertex 1 {m}
  11.129722368505, 0, 0,                  !- X,Y,Z Vertex 2 {m}
  11.129722368505, 5.56486118425249, 0,   !- X,Y,Z Vertex 3 {m}
  11.129722368505, 5.56486118425249, 2.4384; !- X,Y,Z Vertex 4 {m}

OS:Surface,
  {2e912a55-952b-4f76-8fe2-2bc43eab2aca}, !- Handle
  Surface 11,                             !- Name
  Wall,                                   !- Surface Type
  ,                                       !- Construction Name
  {5a0d7e19-c2a1-4e2a-9650-9a1a2d70b790}, !- Space Name
  Outdoors,                               !- Outside Boundary Condition
  ,                                       !- Outside Boundary Condition Object
  SunExposed,                             !- Sun Exposure
  WindExposed,                            !- Wind Exposure
  ,                                       !- View Factor to Ground
  ,                                       !- Number of Vertices
  0, 0, 2.4384,                           !- X,Y,Z Vertex 1 {m}
  0, 0, 0,                                !- X,Y,Z Vertex 2 {m}
  11.129722368505, 0, 0,                  !- X,Y,Z Vertex 3 {m}
  11.129722368505, 0, 2.4384;             !- X,Y,Z Vertex 4 {m}

OS:Surface,
  {ff0cbbd7-fffe-4960-978f-9d2073e9674c}, !- Handle
  Surface 12,                             !- Name
  RoofCeiling,                            !- Surface Type
  ,                                       !- Construction Name
  {5a0d7e19-c2a1-4e2a-9650-9a1a2d70b790}, !- Space Name
  Outdoors,                               !- Outside Boundary Condition
  ,                                       !- Outside Boundary Condition Object
  SunExposed,                             !- Sun Exposure
  WindExposed,                            !- Wind Exposure
  ,                                       !- View Factor to Ground
  ,                                       !- Number of Vertices
  11.129722368505, 0, 2.4384,             !- X,Y,Z Vertex 1 {m}
  11.129722368505, 5.56486118425249, 2.4384, !- X,Y,Z Vertex 2 {m}
  0, 5.56486118425249, 2.4384,            !- X,Y,Z Vertex 3 {m}
  0, 0, 2.4384;                           !- X,Y,Z Vertex 4 {m}

OS:BuildingUnit,
  {927659e6-3715-463d-ac59-0b5e0d978219}, !- Handle
  unit 1,                                 !- Name
  ,                                       !- Rendering Color
  Residential;                            !- Building Unit Type

OS:Building,
  {a95f0f37-7cbc-4fe0-a497-1ceae9c67545}, !- Handle
  Building 1,                             !- Name
  ,                                       !- Building Sector Type
  0,                                      !- North Axis {deg}
  ,                                       !- Nominal Floor to Floor Height {m}
  ,                                       !- Space Type Name
  ,                                       !- Default Construction Set Name
  ,                                       !- Default Schedule Set Name
  3,                                      !- Standards Number of Stories
  3,                                      !- Standards Number of Above Ground Stories
  ,                                       !- Standards Template
  singlefamilydetached,                   !- Standards Building Type
  1;                                      !- Standards Number of Living Units

OS:AdditionalProperties,
  {f9df6b0f-c0e7-4a28-8da3-c0594d9c9e4a}, !- Handle
  {a95f0f37-7cbc-4fe0-a497-1ceae9c67545}, !- Object Name
  Total Units Represented,                !- Feature Name 1
  Integer,                                !- Feature Data Type 1
  1,                                      !- Feature Value 1
  Total Units Modeled,                    !- Feature Name 2
  Integer,                                !- Feature Data Type 2
  1;                                      !- Feature Value 2

OS:AdditionalProperties,
  {2e261043-3578-40a1-a8d8-bf15c026ab37}, !- Handle
  {927659e6-3715-463d-ac59-0b5e0d978219}, !- Object Name
  NumberOfBedrooms,                       !- Feature Name 1
  Integer,                                !- Feature Data Type 1
  3,                                      !- Feature Value 1
  NumberOfBathrooms,                      !- Feature Name 2
  Double,                                 !- Feature Data Type 2
  2;                                      !- Feature Value 2

OS:Schedule:Day,
  {2a13986b-2436-4d9b-94e2-dd932fbbedb6}, !- Handle
  Schedule Day 1,                         !- Name
  ,                                       !- Schedule Type Limits Name
  ,                                       !- Interpolate to Timestep
  24,                                     !- Hour 1
  0,                                      !- Minute 1
  0;                                      !- Value Until Time 1

OS:Schedule:Day,
  {42295178-1e26-4280-8bc3-cef0f3debd02}, !- Handle
  Schedule Day 2,                         !- Name
  ,                                       !- Schedule Type Limits Name
  ,                                       !- Interpolate to Timestep
  24,                                     !- Hour 1
  0,                                      !- Minute 1
  1;                                      !- Value Until Time 1

OS:ShadingSurfaceGroup,
  {f4c5f85c-0389-4c24-8d4f-89a4585c7cda}, !- Handle
  res eaves,                              !- Name
  Building;                               !- Shading Surface Type

OS:ShadingSurface,
  {47882c24-3b53-403b-811b-50391868d0ee}, !- Handle
  Surface 12 - res eaves,                 !- Name
  ,                                       !- Construction Name
  {f4c5f85c-0389-4c24-8d4f-89a4585c7cda}, !- Shading Surface Group Name
  ,                                       !- Transmittance Schedule Name
  ,                                       !- Number of Vertices
  0, -0.6096, 4.8768,                     !- X,Y,Z Vertex 1 {m}
  11.129722368505, -0.6096, 4.8768,       !- X,Y,Z Vertex 2 {m}
  11.129722368505, 0, 4.8768,             !- X,Y,Z Vertex 3 {m}
  0, 0, 4.8768;                           !- X,Y,Z Vertex 4 {m}

OS:ShadingSurface,
  {285e5f50-106f-4eee-8c30-347d0fe8c78e}, !- Handle
  Surface 12 - res eaves 1,               !- Name
  ,                                       !- Construction Name
  {f4c5f85c-0389-4c24-8d4f-89a4585c7cda}, !- Shading Surface Group Name
  ,                                       !- Transmittance Schedule Name
  ,                                       !- Number of Vertices
  11.739322368505, 0, 4.8768,             !- X,Y,Z Vertex 1 {m}
  11.739322368505, 5.56486118425249, 4.8768, !- X,Y,Z Vertex 2 {m}
  11.129722368505, 5.56486118425249, 4.8768, !- X,Y,Z Vertex 3 {m}
  11.129722368505, 0, 4.8768;             !- X,Y,Z Vertex 4 {m}

OS:ShadingSurface,
  {7dee0dc5-34b3-402b-af6f-46e1f8c42d90}, !- Handle
  Surface 12 - res eaves 2,               !- Name
  ,                                       !- Construction Name
  {f4c5f85c-0389-4c24-8d4f-89a4585c7cda}, !- Shading Surface Group Name
  ,                                       !- Transmittance Schedule Name
  ,                                       !- Number of Vertices
  11.129722368505, 6.17446118425249, 4.8768, !- X,Y,Z Vertex 1 {m}
  0, 6.17446118425249, 4.8768,            !- X,Y,Z Vertex 2 {m}
  0, 5.56486118425249, 4.8768,            !- X,Y,Z Vertex 3 {m}
  11.129722368505, 5.56486118425249, 4.8768; !- X,Y,Z Vertex 4 {m}

OS:ShadingSurface,
  {f172f6ef-6558-4bea-a94f-e6d3f7d2c9b6}, !- Handle
  Surface 12 - res eaves 3,               !- Name
  ,                                       !- Construction Name
  {f4c5f85c-0389-4c24-8d4f-89a4585c7cda}, !- Shading Surface Group Name
  ,                                       !- Transmittance Schedule Name
  ,                                       !- Number of Vertices
  -0.6096, 5.56486118425249, 4.8768,      !- X,Y,Z Vertex 1 {m}
  -0.6096, 0, 4.8768,                     !- X,Y,Z Vertex 2 {m}
  0, 0, 4.8768,                           !- X,Y,Z Vertex 3 {m}
  0, 5.56486118425249, 4.8768;            !- X,Y,Z Vertex 4 {m}

