!- NOTE: Auto-generated from /test/osw_files/SFD_2000sqft_2story_FB_UA_Denver_ElectricBaseboard.osw

OS:Version,
  {b521def1-530c-4454-9d1e-a43fa8a81948}, !- Handle
  2.8.1;                                  !- Version Identifier

OS:SimulationControl,
  {845ca26f-984c-4ce7-816c-47e0d9b359b7}, !- Handle
  ,                                       !- Do Zone Sizing Calculation
  ,                                       !- Do System Sizing Calculation
  ,                                       !- Do Plant Sizing Calculation
  No;                                     !- Run Simulation for Sizing Periods

OS:Timestep,
  {b5f67365-0349-4026-b536-bb1888ee91ff}, !- Handle
  6;                                      !- Number of Timesteps per Hour

OS:ShadowCalculation,
  {f42408e4-256d-4478-8016-8600f36727a9}, !- Handle
  20,                                     !- Calculation Frequency
  200;                                    !- Maximum Figures in Shadow Overlap Calculations

OS:SurfaceConvectionAlgorithm:Outside,
  {57ffac3d-f76d-496c-8029-70d37fd255e8}, !- Handle
  DOE-2;                                  !- Algorithm

OS:SurfaceConvectionAlgorithm:Inside,
  {e1e8149b-1507-4922-a8b6-66c0f4223117}, !- Handle
  TARP;                                   !- Algorithm

OS:ZoneCapacitanceMultiplier:ResearchSpecial,
  {9b261e25-2947-4f2f-b31b-668ce39f749e}, !- Handle
  ,                                       !- Temperature Capacity Multiplier
  15,                                     !- Humidity Capacity Multiplier
  ;                                       !- Carbon Dioxide Capacity Multiplier

OS:RunPeriod,
  {6d6db518-6aea-45f5-9b13-d815ec93414f}, !- Handle
  Run Period 1,                           !- Name
  1,                                      !- Begin Month
  1,                                      !- Begin Day of Month
  12,                                     !- End Month
  31,                                     !- End Day of Month
  ,                                       !- Use Weather File Holidays and Special Days
  ,                                       !- Use Weather File Daylight Saving Period
  ,                                       !- Apply Weekend Holiday Rule
  ,                                       !- Use Weather File Rain Indicators
  ,                                       !- Use Weather File Snow Indicators
  ;                                       !- Number of Times Runperiod to be Repeated

OS:YearDescription,
  {fde9fa63-b3cd-4433-9d4d-edda572082d2}, !- Handle
  2007,                                   !- Calendar Year
  ,                                       !- Day of Week for Start Day
  ;                                       !- Is Leap Year

OS:ThermalZone,
  {8c41de43-90c6-4ec2-920b-ce46acd65ff8}, !- Handle
  living zone,                            !- Name
  ,                                       !- Multiplier
  ,                                       !- Ceiling Height {m}
  ,                                       !- Volume {m3}
  ,                                       !- Floor Area {m2}
  ,                                       !- Zone Inside Convection Algorithm
  ,                                       !- Zone Outside Convection Algorithm
  ,                                       !- Zone Conditioning Equipment List Name
  {dd5469aa-c69c-4ba1-8977-e9f93531ebe6}, !- Zone Air Inlet Port List
  {b12de712-2d96-4c5c-af39-d8998d9d6154}, !- Zone Air Exhaust Port List
  {aba7413a-9ec4-4041-baae-52ca36feb010}, !- Zone Air Node Name
  {177360b7-bdfe-485b-ab4d-fa02cad36357}, !- Zone Return Air Port List
  ,                                       !- Primary Daylighting Control Name
  ,                                       !- Fraction of Zone Controlled by Primary Daylighting Control
  ,                                       !- Secondary Daylighting Control Name
  ,                                       !- Fraction of Zone Controlled by Secondary Daylighting Control
  ,                                       !- Illuminance Map Name
  ,                                       !- Group Rendering Name
  {8820739e-9506-48bb-ab92-5424d4f77f4e}, !- Thermostat Name
  No;                                     !- Use Ideal Air Loads

OS:Node,
  {6d343769-3249-4891-b830-111b81acd407}, !- Handle
  Node 1,                                 !- Name
  {aba7413a-9ec4-4041-baae-52ca36feb010}, !- Inlet Port
  ;                                       !- Outlet Port

OS:Connection,
  {aba7413a-9ec4-4041-baae-52ca36feb010}, !- Handle
  {c7047a4a-b6a6-4372-b535-43ac253df6bd}, !- Name
  {8c41de43-90c6-4ec2-920b-ce46acd65ff8}, !- Source Object
  11,                                     !- Outlet Port
  {6d343769-3249-4891-b830-111b81acd407}, !- Target Object
  2;                                      !- Inlet Port

OS:PortList,
  {dd5469aa-c69c-4ba1-8977-e9f93531ebe6}, !- Handle
  {5eceaaf4-ba92-48fd-a7ba-81e3eb92edd3}, !- Name
  {8c41de43-90c6-4ec2-920b-ce46acd65ff8}; !- HVAC Component

OS:PortList,
  {b12de712-2d96-4c5c-af39-d8998d9d6154}, !- Handle
  {c6853ef9-8f18-40f9-9017-d12d600c2353}, !- Name
  {8c41de43-90c6-4ec2-920b-ce46acd65ff8}; !- HVAC Component

OS:PortList,
  {177360b7-bdfe-485b-ab4d-fa02cad36357}, !- Handle
  {7f466b1f-1ffb-4ad5-86a2-f137af6a1505}, !- Name
  {8c41de43-90c6-4ec2-920b-ce46acd65ff8}; !- HVAC Component

OS:Sizing:Zone,
  {53c3ecbe-6317-4d9a-84f5-182189cce196}, !- Handle
  {8c41de43-90c6-4ec2-920b-ce46acd65ff8}, !- Zone or ZoneList Name
  SupplyAirTemperature,                   !- Zone Cooling Design Supply Air Temperature Input Method
  14,                                     !- Zone Cooling Design Supply Air Temperature {C}
  11.11,                                  !- Zone Cooling Design Supply Air Temperature Difference {deltaC}
  SupplyAirTemperature,                   !- Zone Heating Design Supply Air Temperature Input Method
  40,                                     !- Zone Heating Design Supply Air Temperature {C}
  11.11,                                  !- Zone Heating Design Supply Air Temperature Difference {deltaC}
  0.0085,                                 !- Zone Cooling Design Supply Air Humidity Ratio {kg-H2O/kg-air}
  0.008,                                  !- Zone Heating Design Supply Air Humidity Ratio {kg-H2O/kg-air}
  ,                                       !- Zone Heating Sizing Factor
  ,                                       !- Zone Cooling Sizing Factor
  DesignDay,                              !- Cooling Design Air Flow Method
  ,                                       !- Cooling Design Air Flow Rate {m3/s}
  ,                                       !- Cooling Minimum Air Flow per Zone Floor Area {m3/s-m2}
  ,                                       !- Cooling Minimum Air Flow {m3/s}
  ,                                       !- Cooling Minimum Air Flow Fraction
  DesignDay,                              !- Heating Design Air Flow Method
  ,                                       !- Heating Design Air Flow Rate {m3/s}
  ,                                       !- Heating Maximum Air Flow per Zone Floor Area {m3/s-m2}
  ,                                       !- Heating Maximum Air Flow {m3/s}
  ,                                       !- Heating Maximum Air Flow Fraction
  ,                                       !- Design Zone Air Distribution Effectiveness in Cooling Mode
  ,                                       !- Design Zone Air Distribution Effectiveness in Heating Mode
  No,                                     !- Account for Dedicated Outdoor Air System
  NeutralSupplyAir,                       !- Dedicated Outdoor Air System Control Strategy
  autosize,                               !- Dedicated Outdoor Air Low Setpoint Temperature for Design {C}
  autosize;                               !- Dedicated Outdoor Air High Setpoint Temperature for Design {C}

OS:ZoneHVAC:EquipmentList,
  {3d072e79-7c38-45bc-bf43-e2d0a6cc107f}, !- Handle
  Zone HVAC Equipment List 1,             !- Name
  {8c41de43-90c6-4ec2-920b-ce46acd65ff8}, !- Thermal Zone
  SequentialLoad,                         !- Load Distribution Scheme
  {6a0af441-8fdd-43f7-b478-1cd8f59eb86d}, !- Zone Equipment 1
  1,                                      !- Zone Equipment Cooling Sequence 1
  1,                                      !- Zone Equipment Heating or No-Load Sequence 1
  ,                                       !- Zone Equipment Sequential Cooling Fraction 1
  ;                                       !- Zone Equipment Sequential Heating Fraction 1

OS:ThermalZone,
  {5a4a0bbe-8034-4756-ae20-2bbcd7f9443a}, !- Handle
  garage zone,                            !- Name
  ,                                       !- Multiplier
  ,                                       !- Ceiling Height {m}
  ,                                       !- Volume {m3}
  ,                                       !- Floor Area {m2}
  ,                                       !- Zone Inside Convection Algorithm
  ,                                       !- Zone Outside Convection Algorithm
  ,                                       !- Zone Conditioning Equipment List Name
  {43dbb8ec-5ccd-4c09-b414-1da677f1587c}, !- Zone Air Inlet Port List
  {d58f1fd2-f23f-45d9-9a2a-e1b0475b287a}, !- Zone Air Exhaust Port List
  {bcfeb508-8623-4dd9-b22c-51edc840932f}, !- Zone Air Node Name
  {ba6f593a-d778-458c-9d8a-1df011fb24e0}, !- Zone Return Air Port List
  ,                                       !- Primary Daylighting Control Name
  ,                                       !- Fraction of Zone Controlled by Primary Daylighting Control
  ,                                       !- Secondary Daylighting Control Name
  ,                                       !- Fraction of Zone Controlled by Secondary Daylighting Control
  ,                                       !- Illuminance Map Name
  ,                                       !- Group Rendering Name
  ,                                       !- Thermostat Name
  No;                                     !- Use Ideal Air Loads

OS:Node,
  {69be99b7-4b89-4ee3-9e98-773ab1b67512}, !- Handle
  Node 2,                                 !- Name
  {bcfeb508-8623-4dd9-b22c-51edc840932f}, !- Inlet Port
  ;                                       !- Outlet Port

OS:Connection,
  {bcfeb508-8623-4dd9-b22c-51edc840932f}, !- Handle
  {62ee992b-c349-44fb-ac68-d53497bb58fd}, !- Name
  {5a4a0bbe-8034-4756-ae20-2bbcd7f9443a}, !- Source Object
  11,                                     !- Outlet Port
  {69be99b7-4b89-4ee3-9e98-773ab1b67512}, !- Target Object
  2;                                      !- Inlet Port

OS:PortList,
  {43dbb8ec-5ccd-4c09-b414-1da677f1587c}, !- Handle
  {3d5ab52f-01f6-42b3-b779-54795b008503}, !- Name
  {5a4a0bbe-8034-4756-ae20-2bbcd7f9443a}; !- HVAC Component

OS:PortList,
  {d58f1fd2-f23f-45d9-9a2a-e1b0475b287a}, !- Handle
  {cbff05d1-e109-4b63-8b48-133213029937}, !- Name
  {5a4a0bbe-8034-4756-ae20-2bbcd7f9443a}; !- HVAC Component

OS:PortList,
  {ba6f593a-d778-458c-9d8a-1df011fb24e0}, !- Handle
  {01de2c79-f4c3-4fac-8d63-267b68d46f2e}, !- Name
  {5a4a0bbe-8034-4756-ae20-2bbcd7f9443a}; !- HVAC Component

OS:Sizing:Zone,
  {c4031c75-798b-40af-9708-006b4d7399cf}, !- Handle
  {5a4a0bbe-8034-4756-ae20-2bbcd7f9443a}, !- Zone or ZoneList Name
  SupplyAirTemperature,                   !- Zone Cooling Design Supply Air Temperature Input Method
  14,                                     !- Zone Cooling Design Supply Air Temperature {C}
  11.11,                                  !- Zone Cooling Design Supply Air Temperature Difference {deltaC}
  SupplyAirTemperature,                   !- Zone Heating Design Supply Air Temperature Input Method
  40,                                     !- Zone Heating Design Supply Air Temperature {C}
  11.11,                                  !- Zone Heating Design Supply Air Temperature Difference {deltaC}
  0.0085,                                 !- Zone Cooling Design Supply Air Humidity Ratio {kg-H2O/kg-air}
  0.008,                                  !- Zone Heating Design Supply Air Humidity Ratio {kg-H2O/kg-air}
  ,                                       !- Zone Heating Sizing Factor
  ,                                       !- Zone Cooling Sizing Factor
  DesignDay,                              !- Cooling Design Air Flow Method
  ,                                       !- Cooling Design Air Flow Rate {m3/s}
  ,                                       !- Cooling Minimum Air Flow per Zone Floor Area {m3/s-m2}
  ,                                       !- Cooling Minimum Air Flow {m3/s}
  ,                                       !- Cooling Minimum Air Flow Fraction
  DesignDay,                              !- Heating Design Air Flow Method
  ,                                       !- Heating Design Air Flow Rate {m3/s}
  ,                                       !- Heating Maximum Air Flow per Zone Floor Area {m3/s-m2}
  ,                                       !- Heating Maximum Air Flow {m3/s}
  ,                                       !- Heating Maximum Air Flow Fraction
  ,                                       !- Design Zone Air Distribution Effectiveness in Cooling Mode
  ,                                       !- Design Zone Air Distribution Effectiveness in Heating Mode
  No,                                     !- Account for Dedicated Outdoor Air System
  NeutralSupplyAir,                       !- Dedicated Outdoor Air System Control Strategy
  autosize,                               !- Dedicated Outdoor Air Low Setpoint Temperature for Design {C}
  autosize;                               !- Dedicated Outdoor Air High Setpoint Temperature for Design {C}

OS:ZoneHVAC:EquipmentList,
  {e7d84c63-9d45-451c-91a7-e568d0148fbd}, !- Handle
  Zone HVAC Equipment List 2,             !- Name
  {5a4a0bbe-8034-4756-ae20-2bbcd7f9443a}; !- Thermal Zone

OS:Space,
  {8d1df36d-5a31-4b89-b602-ff720ddd0778}, !- Handle
  garage space,                           !- Name
  {bab610ca-b8b2-4a95-8f0d-a755993658d0}, !- Space Type Name
  ,                                       !- Default Construction Set Name
  ,                                       !- Default Schedule Set Name
  -0,                                     !- Direction of Relative North {deg}
  0,                                      !- X Origin {m}
  0,                                      !- Y Origin {m}
  0,                                      !- Z Origin {m}
  ,                                       !- Building Story Name
  {5a4a0bbe-8034-4756-ae20-2bbcd7f9443a}; !- Thermal Zone Name

OS:Surface,
  {408cc9c1-5ed8-4628-a608-23f048663a07}, !- Handle
  Surface 1,                              !- Name
  Floor,                                  !- Surface Type
  ,                                       !- Construction Name
  {8d1df36d-5a31-4b89-b602-ff720ddd0778}, !- Space Name
  Foundation,                             !- Outside Boundary Condition
  ,                                       !- Outside Boundary Condition Object
  NoSun,                                  !- Sun Exposure
  NoWind,                                 !- Wind Exposure
  ,                                       !- View Factor to Ground
  ,                                       !- Number of Vertices
  5.57695129776527, -3.048, 0,            !- X,Y,Z Vertex 1 {m}
  5.57695129776527, 3.048, 0,             !- X,Y,Z Vertex 2 {m}
  11.6729512977653, 3.048, 0,             !- X,Y,Z Vertex 3 {m}
  11.6729512977653, -3.048, 0;            !- X,Y,Z Vertex 4 {m}

OS:Surface,
  {9d476cd1-bca1-4146-8fd2-9b2c21481174}, !- Handle
  Surface 2,                              !- Name
  Wall,                                   !- Surface Type
  ,                                       !- Construction Name
  {8d1df36d-5a31-4b89-b602-ff720ddd0778}, !- Space Name
  Surface,                                !- Outside Boundary Condition
  {a4ab43f0-0963-476b-b3cf-574add98071c}, !- Outside Boundary Condition Object
  NoSun,                                  !- Sun Exposure
  NoWind,                                 !- Wind Exposure
  ,                                       !- View Factor to Ground
  ,                                       !- Number of Vertices
  5.57695129776527, 3.048, 2.4384,        !- X,Y,Z Vertex 1 {m}
  5.57695129776527, 3.048, 0,             !- X,Y,Z Vertex 2 {m}
  5.57695129776527, 0, 0,                 !- X,Y,Z Vertex 3 {m}
  5.57695129776527, 0, 2.4384;            !- X,Y,Z Vertex 4 {m}

OS:Surface,
  {b2a6e795-3d02-4696-8323-aa2a77e86088}, !- Handle
  Surface 3,                              !- Name
  Wall,                                   !- Surface Type
  ,                                       !- Construction Name
  {8d1df36d-5a31-4b89-b602-ff720ddd0778}, !- Space Name
  Surface,                                !- Outside Boundary Condition
  {d4d305d5-3e60-4173-a176-44cc53da50a7}, !- Outside Boundary Condition Object
  NoSun,                                  !- Sun Exposure
  NoWind,                                 !- Wind Exposure
  ,                                       !- View Factor to Ground
  ,                                       !- Number of Vertices
  11.6729512977653, 3.048, 2.4384,        !- X,Y,Z Vertex 1 {m}
  11.6729512977653, 3.048, 0,             !- X,Y,Z Vertex 2 {m}
  5.57695129776527, 3.048, 0,             !- X,Y,Z Vertex 3 {m}
  5.57695129776527, 3.048, 2.4384;        !- X,Y,Z Vertex 4 {m}

OS:Surface,
  {c664e5c7-e58e-4aff-a184-df53d10a8610}, !- Handle
  Surface 4,                              !- Name
  Wall,                                   !- Surface Type
  ,                                       !- Construction Name
  {8d1df36d-5a31-4b89-b602-ff720ddd0778}, !- Space Name
  Outdoors,                               !- Outside Boundary Condition
  ,                                       !- Outside Boundary Condition Object
  SunExposed,                             !- Sun Exposure
  WindExposed,                            !- Wind Exposure
  ,                                       !- View Factor to Ground
  ,                                       !- Number of Vertices
  11.6729512977653, -3.048, 2.4384,       !- X,Y,Z Vertex 1 {m}
  11.6729512977653, -3.048, 0,            !- X,Y,Z Vertex 2 {m}
  11.6729512977653, 3.048, 0,             !- X,Y,Z Vertex 3 {m}
  11.6729512977653, 3.048, 2.4384;        !- X,Y,Z Vertex 4 {m}

OS:Surface,
  {8fa3eee3-a663-4320-9f3c-35fa40d5f0ef}, !- Handle
  Surface 5,                              !- Name
  Wall,                                   !- Surface Type
  ,                                       !- Construction Name
  {8d1df36d-5a31-4b89-b602-ff720ddd0778}, !- Space Name
  Outdoors,                               !- Outside Boundary Condition
  ,                                       !- Outside Boundary Condition Object
  SunExposed,                             !- Sun Exposure
  WindExposed,                            !- Wind Exposure
  ,                                       !- View Factor to Ground
  ,                                       !- Number of Vertices
  5.57695129776527, -3.048, 2.4384,       !- X,Y,Z Vertex 1 {m}
  5.57695129776527, -3.048, 0,            !- X,Y,Z Vertex 2 {m}
  11.6729512977653, -3.048, 0,            !- X,Y,Z Vertex 3 {m}
  11.6729512977653, -3.048, 2.4384;       !- X,Y,Z Vertex 4 {m}

OS:Surface,
  {75eb7ccb-1341-4119-adc6-2dab62949dac}, !- Handle
  Surface 6,                              !- Name
  RoofCeiling,                            !- Surface Type
  ,                                       !- Construction Name
  {8d1df36d-5a31-4b89-b602-ff720ddd0778}, !- Space Name
  Surface,                                !- Outside Boundary Condition
  {7b2ca0a2-79aa-468d-87e9-455c637c43e5}, !- Outside Boundary Condition Object
  NoSun,                                  !- Sun Exposure
  NoWind,                                 !- Wind Exposure
  ,                                       !- View Factor to Ground
  ,                                       !- Number of Vertices
  11.6729512977653, -3.048, 2.4384,       !- X,Y,Z Vertex 1 {m}
  11.6729512977653, 3.048, 2.4384,        !- X,Y,Z Vertex 2 {m}
  5.57695129776527, 3.048, 2.4384,        !- X,Y,Z Vertex 3 {m}
  5.57695129776527, -3.048, 2.4384;       !- X,Y,Z Vertex 4 {m}

OS:SpaceType,
  {bab610ca-b8b2-4a95-8f0d-a755993658d0}, !- Handle
  Space Type 1,                           !- Name
  ,                                       !- Default Construction Set Name
  ,                                       !- Default Schedule Set Name
  ,                                       !- Group Rendering Name
  ,                                       !- Design Specification Outdoor Air Object Name
  ,                                       !- Standards Template
  ,                                       !- Standards Building Type
  garage;                                 !- Standards Space Type

OS:Space,
  {94f149ea-d5a0-48cb-b23d-a138ffa5cf94}, !- Handle
  living space,                           !- Name
  {da1adafa-40cd-4464-b5b7-d151b9bd2bdd}, !- Space Type Name
  ,                                       !- Default Construction Set Name
  ,                                       !- Default Schedule Set Name
  -0,                                     !- Direction of Relative North {deg}
  0,                                      !- X Origin {m}
  0,                                      !- Y Origin {m}
  0,                                      !- Z Origin {m}
  ,                                       !- Building Story Name
  {8c41de43-90c6-4ec2-920b-ce46acd65ff8}, !- Thermal Zone Name
  ,                                       !- Part of Total Floor Area
  ,                                       !- Design Specification Outdoor Air Object Name
  {a9fe5c22-a886-433c-aa4f-62faf15e25eb}; !- Building Unit Name

OS:Surface,
  {95bb990d-fc5a-48c9-b946-51538ff50e49}, !- Handle
  Surface 7,                              !- Name
  Floor,                                  !- Surface Type
  ,                                       !- Construction Name
  {94f149ea-d5a0-48cb-b23d-a138ffa5cf94}, !- Space Name
  Surface,                                !- Outside Boundary Condition
  {67fe062d-6bb5-4ad0-ba76-ad68dac7cd1d}, !- Outside Boundary Condition Object
  NoSun,                                  !- Sun Exposure
  NoWind,                                 !- Wind Exposure
  ,                                       !- View Factor to Ground
  ,                                       !- Number of Vertices
  0, 0, 0,                                !- X,Y,Z Vertex 1 {m}
  0, 5.83647564888264, 0,                 !- X,Y,Z Vertex 2 {m}
  11.6729512977653, 5.83647564888264, 0,  !- X,Y,Z Vertex 3 {m}
  11.6729512977653, 3.048, 0,             !- X,Y,Z Vertex 4 {m}
  5.57695129776527, 3.048, 0,             !- X,Y,Z Vertex 5 {m}
  5.57695129776527, 0, 0;                 !- X,Y,Z Vertex 6 {m}

OS:Surface,
  {dca2cfff-1ef1-4211-b1e5-9c131a18d03d}, !- Handle
  Surface 8,                              !- Name
  Wall,                                   !- Surface Type
  ,                                       !- Construction Name
  {94f149ea-d5a0-48cb-b23d-a138ffa5cf94}, !- Space Name
  Outdoors,                               !- Outside Boundary Condition
  ,                                       !- Outside Boundary Condition Object
  SunExposed,                             !- Sun Exposure
  WindExposed,                            !- Wind Exposure
  ,                                       !- View Factor to Ground
  ,                                       !- Number of Vertices
  0, 5.83647564888264, 2.4384,            !- X,Y,Z Vertex 1 {m}
  0, 5.83647564888264, 0,                 !- X,Y,Z Vertex 2 {m}
  0, 0, 0,                                !- X,Y,Z Vertex 3 {m}
  0, 0, 2.4384;                           !- X,Y,Z Vertex 4 {m}

OS:Surface,
  {c83b21bf-6e15-4590-a7de-f65fe6780374}, !- Handle
  Surface 9,                              !- Name
  Wall,                                   !- Surface Type
  ,                                       !- Construction Name
  {94f149ea-d5a0-48cb-b23d-a138ffa5cf94}, !- Space Name
  Outdoors,                               !- Outside Boundary Condition
  ,                                       !- Outside Boundary Condition Object
  SunExposed,                             !- Sun Exposure
  WindExposed,                            !- Wind Exposure
  ,                                       !- View Factor to Ground
  ,                                       !- Number of Vertices
  11.6729512977653, 5.83647564888264, 2.4384, !- X,Y,Z Vertex 1 {m}
  11.6729512977653, 5.83647564888264, 0,  !- X,Y,Z Vertex 2 {m}
  0, 5.83647564888264, 0,                 !- X,Y,Z Vertex 3 {m}
  0, 5.83647564888264, 2.4384;            !- X,Y,Z Vertex 4 {m}

OS:Surface,
  {c07769d0-d0be-40a6-9632-915bd1a52660}, !- Handle
  Surface 10,                             !- Name
  Wall,                                   !- Surface Type
  ,                                       !- Construction Name
  {94f149ea-d5a0-48cb-b23d-a138ffa5cf94}, !- Space Name
  Outdoors,                               !- Outside Boundary Condition
  ,                                       !- Outside Boundary Condition Object
  SunExposed,                             !- Sun Exposure
  WindExposed,                            !- Wind Exposure
  ,                                       !- View Factor to Ground
  ,                                       !- Number of Vertices
  11.6729512977653, 3.048, 2.4384,        !- X,Y,Z Vertex 1 {m}
  11.6729512977653, 3.048, 0,             !- X,Y,Z Vertex 2 {m}
  11.6729512977653, 5.83647564888264, 0,  !- X,Y,Z Vertex 3 {m}
  11.6729512977653, 5.83647564888264, 2.4384; !- X,Y,Z Vertex 4 {m}

OS:Surface,
  {d4d305d5-3e60-4173-a176-44cc53da50a7}, !- Handle
  Surface 11,                             !- Name
  Wall,                                   !- Surface Type
  ,                                       !- Construction Name
  {94f149ea-d5a0-48cb-b23d-a138ffa5cf94}, !- Space Name
  Surface,                                !- Outside Boundary Condition
  {b2a6e795-3d02-4696-8323-aa2a77e86088}, !- Outside Boundary Condition Object
  NoSun,                                  !- Sun Exposure
  NoWind,                                 !- Wind Exposure
  ,                                       !- View Factor to Ground
  ,                                       !- Number of Vertices
  5.57695129776527, 3.048, 2.4384,        !- X,Y,Z Vertex 1 {m}
  5.57695129776527, 3.048, 0,             !- X,Y,Z Vertex 2 {m}
  11.6729512977653, 3.048, 0,             !- X,Y,Z Vertex 3 {m}
  11.6729512977653, 3.048, 2.4384;        !- X,Y,Z Vertex 4 {m}

OS:Surface,
  {a4ab43f0-0963-476b-b3cf-574add98071c}, !- Handle
  Surface 12,                             !- Name
  Wall,                                   !- Surface Type
  ,                                       !- Construction Name
  {94f149ea-d5a0-48cb-b23d-a138ffa5cf94}, !- Space Name
  Surface,                                !- Outside Boundary Condition
  {9d476cd1-bca1-4146-8fd2-9b2c21481174}, !- Outside Boundary Condition Object
  NoSun,                                  !- Sun Exposure
  NoWind,                                 !- Wind Exposure
  ,                                       !- View Factor to Ground
  ,                                       !- Number of Vertices
  5.57695129776527, 0, 2.4384,            !- X,Y,Z Vertex 1 {m}
  5.57695129776527, 0, 0,                 !- X,Y,Z Vertex 2 {m}
  5.57695129776527, 3.048, 0,             !- X,Y,Z Vertex 3 {m}
  5.57695129776527, 3.048, 2.4384;        !- X,Y,Z Vertex 4 {m}

OS:Surface,
  {742ece95-97c8-473c-8488-c162bf9255be}, !- Handle
  Surface 13,                             !- Name
  Wall,                                   !- Surface Type
  ,                                       !- Construction Name
  {94f149ea-d5a0-48cb-b23d-a138ffa5cf94}, !- Space Name
  Outdoors,                               !- Outside Boundary Condition
  ,                                       !- Outside Boundary Condition Object
  SunExposed,                             !- Sun Exposure
  WindExposed,                            !- Wind Exposure
  ,                                       !- View Factor to Ground
  ,                                       !- Number of Vertices
  0, 0, 2.4384,                           !- X,Y,Z Vertex 1 {m}
  0, 0, 0,                                !- X,Y,Z Vertex 2 {m}
  5.57695129776527, 0, 0,                 !- X,Y,Z Vertex 3 {m}
  5.57695129776527, 0, 2.4384;            !- X,Y,Z Vertex 4 {m}

OS:Surface,
  {9171d9eb-caa6-46c3-80b3-ddee36461d23}, !- Handle
  Surface 14,                             !- Name
  RoofCeiling,                            !- Surface Type
  ,                                       !- Construction Name
  {94f149ea-d5a0-48cb-b23d-a138ffa5cf94}, !- Space Name
  Surface,                                !- Outside Boundary Condition
  {c93a7db3-c4e2-4b0b-b01d-6e1235089146}, !- Outside Boundary Condition Object
  NoSun,                                  !- Sun Exposure
  NoWind,                                 !- Wind Exposure
  ,                                       !- View Factor to Ground
  ,                                       !- Number of Vertices
  5.57695129776527, 0, 2.4384,            !- X,Y,Z Vertex 1 {m}
  5.57695129776527, 3.048, 2.4384,        !- X,Y,Z Vertex 2 {m}
  11.6729512977653, 3.048, 2.4384,        !- X,Y,Z Vertex 3 {m}
  11.6729512977653, 5.83647564888264, 2.4384, !- X,Y,Z Vertex 4 {m}
  0, 5.83647564888264, 2.4384,            !- X,Y,Z Vertex 5 {m}
  0, 0, 2.4384;                           !- X,Y,Z Vertex 6 {m}

OS:SpaceType,
  {da1adafa-40cd-4464-b5b7-d151b9bd2bdd}, !- Handle
  Space Type 2,                           !- Name
  ,                                       !- Default Construction Set Name
  ,                                       !- Default Schedule Set Name
  ,                                       !- Group Rendering Name
  ,                                       !- Design Specification Outdoor Air Object Name