!- NOTE: Auto-generated from /test/osw_files/SFD_2000sqft_2story_FB_GRG_UA_3Beds_2Baths_Denver_WHTank_HWFixtures_RecircDist.osw

OS:Version,
  {113a781d-901a-4f89-bb7e-aa69910c58f6}, !- Handle
  2.9.0;                                  !- Version Identifier

OS:SimulationControl,
  {e9196bc0-6762-4eae-8110-72bb3f196ba5}, !- Handle
  ,                                       !- Do Zone Sizing Calculation
  ,                                       !- Do System Sizing Calculation
  ,                                       !- Do Plant Sizing Calculation
  No;                                     !- Run Simulation for Sizing Periods

OS:Timestep,
  {db9c76df-3000-4c23-925c-36ad2eff10c8}, !- Handle
  6;                                      !- Number of Timesteps per Hour

OS:ShadowCalculation,
  {2afcc8e5-9240-45ca-b440-85c60ff21213}, !- Handle
  20,                                     !- Calculation Frequency
  200;                                    !- Maximum Figures in Shadow Overlap Calculations

OS:SurfaceConvectionAlgorithm:Outside,
  {15dad5c3-b8e0-4ba2-b502-fb742b60aced}, !- Handle
  DOE-2;                                  !- Algorithm

OS:SurfaceConvectionAlgorithm:Inside,
  {a022550c-3281-4019-a828-df6d1db99b36}, !- Handle
  TARP;                                   !- Algorithm

OS:ZoneCapacitanceMultiplier:ResearchSpecial,
  {713474b9-dfc0-47bb-bbe4-fbbd647e1942}, !- Handle
  ,                                       !- Temperature Capacity Multiplier
  15,                                     !- Humidity Capacity Multiplier
  ;                                       !- Carbon Dioxide Capacity Multiplier

OS:RunPeriod,
  {6f37ed71-9642-4b72-9497-77341e167fc1}, !- Handle
  Run Period 1,                           !- Name
  1,                                      !- Begin Month
  1,                                      !- Begin Day of Month
  12,                                     !- End Month
  31,                                     !- End Day of Month
  ,                                       !- Use Weather File Holidays and Special Days
  ,                                       !- Use Weather File Daylight Saving Period
  ,                                       !- Apply Weekend Holiday Rule
  ,                                       !- Use Weather File Rain Indicators
  ,                                       !- Use Weather File Snow Indicators
  ;                                       !- Number of Times Runperiod to be Repeated

OS:YearDescription,
  {6d7da220-0010-45ec-9f09-04f0494b0ab0}, !- Handle
  2007,                                   !- Calendar Year
  ,                                       !- Day of Week for Start Day
  ;                                       !- Is Leap Year

OS:WeatherFile,
  {5fc32d9f-7d8d-48c9-86c4-ab0928733eaa}, !- Handle
  Denver Intl Ap,                         !- City
  CO,                                     !- State Province Region
  USA,                                    !- Country
  TMY3,                                   !- Data Source
  725650,                                 !- WMO Number
  39.83,                                  !- Latitude {deg}
  -104.65,                                !- Longitude {deg}
  -7,                                     !- Time Zone {hr}
  1650,                                   !- Elevation {m}
  file:../weather/USA_CO_Denver.Intl.AP.725650_TMY3.epw, !- Url
  E23378AA;                               !- Checksum

OS:AdditionalProperties,
  {da23ad7b-c980-4cae-9090-16b66bfe1c88}, !- Handle
  {5fc32d9f-7d8d-48c9-86c4-ab0928733eaa}, !- Object Name
  EPWHeaderCity,                          !- Feature Name 1
  String,                                 !- Feature Data Type 1
  Denver Intl Ap,                         !- Feature Value 1
  EPWHeaderState,                         !- Feature Name 2
  String,                                 !- Feature Data Type 2
  CO,                                     !- Feature Value 2
  EPWHeaderCountry,                       !- Feature Name 3
  String,                                 !- Feature Data Type 3
  USA,                                    !- Feature Value 3
  EPWHeaderDataSource,                    !- Feature Name 4
  String,                                 !- Feature Data Type 4
  TMY3,                                   !- Feature Value 4
  EPWHeaderStation,                       !- Feature Name 5
  String,                                 !- Feature Data Type 5
  725650,                                 !- Feature Value 5
  EPWHeaderLatitude,                      !- Feature Name 6
  Double,                                 !- Feature Data Type 6
  39.829999999999998,                     !- Feature Value 6
  EPWHeaderLongitude,                     !- Feature Name 7
  Double,                                 !- Feature Data Type 7
  -104.65000000000001,                    !- Feature Value 7
  EPWHeaderTimezone,                      !- Feature Name 8
  Double,                                 !- Feature Data Type 8
  -7,                                     !- Feature Value 8
  EPWHeaderAltitude,                      !- Feature Name 9
  Double,                                 !- Feature Data Type 9
  5413.3858267716532,                     !- Feature Value 9
  EPWHeaderLocalPressure,                 !- Feature Name 10
  Double,                                 !- Feature Data Type 10
  0.81937567683596546,                    !- Feature Value 10
  EPWHeaderRecordsPerHour,                !- Feature Name 11
  Double,                                 !- Feature Data Type 11
  0,                                      !- Feature Value 11
  EPWDataAnnualAvgDrybulb,                !- Feature Name 12
  Double,                                 !- Feature Data Type 12
  51.575616438356228,                     !- Feature Value 12
  EPWDataAnnualMinDrybulb,                !- Feature Name 13
  Double,                                 !- Feature Data Type 13
  -2.9200000000000017,                    !- Feature Value 13
  EPWDataAnnualMaxDrybulb,                !- Feature Name 14
  Double,                                 !- Feature Data Type 14
  104,                                    !- Feature Value 14
  EPWDataCDD50F,                          !- Feature Name 15
  Double,                                 !- Feature Data Type 15
  3072.2925000000005,                     !- Feature Value 15
  EPWDataCDD65F,                          !- Feature Name 16
  Double,                                 !- Feature Data Type 16
  883.62000000000035,                     !- Feature Value 16
  EPWDataHDD50F,                          !- Feature Name 17
  Double,                                 !- Feature Data Type 17
  2497.1925000000001,                     !- Feature Value 17
  EPWDataHDD65F,                          !- Feature Name 18
  Double,                                 !- Feature Data Type 18
  5783.5200000000013,                     !- Feature Value 18
  EPWDataAnnualAvgWindspeed,              !- Feature Name 19
  Double,                                 !- Feature Data Type 19
  3.9165296803649667,                     !- Feature Value 19
  EPWDataMonthlyAvgDrybulbs,              !- Feature Name 20
  String,                                 !- Feature Data Type 20
  33.4191935483871&#4431.90142857142857&#4443.02620967741937&#4442.48624999999999&#4459.877741935483854&#4473.57574999999997&#4472.07975806451608&#4472.70008064516134&#4466.49200000000006&#4450.079112903225806&#4437.218250000000005&#4434.582177419354835, !- Feature Value 20
  EPWDataGroundMonthlyTemps,              !- Feature Name 21
  String,                                 !- Feature Data Type 21
  44.08306285945173&#4440.89570904991865&#4440.64045432632048&#4442.153016571250646&#4448.225111118704206&#4454.268919273837525&#4459.508577937551024&#4462.82777283423508&#4463.10975667174995&#4460.41014950381947&#4455.304105212311526&#4449.445696474514364, !- Feature Value 21
  EPWDataWSF,                             !- Feature Name 22
  Double,                                 !- Feature Data Type 22
  0.58999999999999997,                    !- Feature Value 22
  EPWDataMonthlyAvgDailyHighDrybulbs,     !- Feature Name 23
  String,                                 !- Feature Data Type 23
  47.41032258064516&#4446.58642857142857&#4455.15032258064517&#4453.708&#4472.80193548387098&#4488.67600000000002&#4486.1858064516129&#4485.87225806451613&#4482.082&#4463.18064516129033&#4448.73400000000001&#4448.87935483870968, !- Feature Value 23
  EPWDataMonthlyAvgDailyLowDrybulbs,      !- Feature Name 24
  String,                                 !- Feature Data Type 24
  19.347741935483874&#4419.856428571428573&#4430.316129032258065&#4431.112&#4447.41612903225806&#4457.901999999999994&#4459.063870967741934&#4460.956774193548384&#4452.352000000000004&#4438.41612903225806&#4427.002000000000002&#4423.02903225806451, !- Feature Value 24
  EPWDesignHeatingDrybulb,                !- Feature Name 25
  Double,                                 !- Feature Data Type 25
  12.02,                                  !- Feature Value 25
  EPWDesignHeatingWindspeed,              !- Feature Name 26
  Double,                                 !- Feature Data Type 26
  2.8062500000000004,                     !- Feature Value 26
  EPWDesignCoolingDrybulb,                !- Feature Name 27
  Double,                                 !- Feature Data Type 27
  91.939999999999998,                     !- Feature Value 27
  EPWDesignCoolingWetbulb,                !- Feature Name 28
  Double,                                 !- Feature Data Type 28
  59.95131430195849,                      !- Feature Value 28
  EPWDesignCoolingHumidityRatio,          !- Feature Name 29
  Double,                                 !- Feature Data Type 29
  0.0059161086834698092,                  !- Feature Value 29
  EPWDesignCoolingWindspeed,              !- Feature Name 30
  Double,                                 !- Feature Data Type 30
  3.7999999999999989,                     !- Feature Value 30
  EPWDesignDailyTemperatureRange,         !- Feature Name 31
  Double,                                 !- Feature Data Type 31
  24.915483870967748,                     !- Feature Value 31
  EPWDesignDehumidDrybulb,                !- Feature Name 32
  Double,                                 !- Feature Data Type 32
  67.996785714285721,                     !- Feature Value 32
  EPWDesignDehumidHumidityRatio,          !- Feature Name 33
  Double,                                 !- Feature Data Type 33
  0.012133744170488724,                   !- Feature Value 33
  EPWDesignCoolingDirectNormal,           !- Feature Name 34
  Double,                                 !- Feature Data Type 34
  985,                                    !- Feature Value 34
  EPWDesignCoolingDiffuseHorizontal,      !- Feature Name 35
  Double,                                 !- Feature Data Type 35
  84;                                     !- Feature Value 35

OS:Site,
  {570841b5-4131-4e05-a6f0-f10041f6e828}, !- Handle
  Denver Intl Ap_CO_USA,                  !- Name
  39.83,                                  !- Latitude {deg}
  -104.65,                                !- Longitude {deg}
  -7,                                     !- Time Zone {hr}
  1650,                                   !- Elevation {m}
  ;                                       !- Terrain

OS:ClimateZones,
  {4a39201d-3afe-46e2-81c9-50f6770d51c8}, !- Handle
  ,                                       !- Active Institution
  ,                                       !- Active Year
  ,                                       !- Climate Zone Institution Name 1
  ,                                       !- Climate Zone Document Name 1
  ,                                       !- Climate Zone Document Year 1
  ,                                       !- Climate Zone Value 1
  Building America,                       !- Climate Zone Institution Name 2
  ,                                       !- Climate Zone Document Name 2
  0,                                      !- Climate Zone Document Year 2
  Cold;                                   !- Climate Zone Value 2

OS:Site:WaterMainsTemperature,
  {64033729-fc0e-41b9-879c-523e9e14fed3}, !- Handle
  Correlation,                            !- Calculation Method
  ,                                       !- Temperature Schedule Name
  10.8753424657535,                       !- Annual Average Outdoor Air Temperature {C}
  23.1524007936508;                       !- Maximum Difference In Monthly Average Outdoor Air Temperatures {deltaC}

OS:RunPeriodControl:DaylightSavingTime,
  {def4f7f0-a3fc-4388-a35e-a0e262f900c5}, !- Handle
  4/7,                                    !- Start Date
  10/26;                                  !- End Date

OS:Site:GroundTemperature:Deep,
  {c4db9876-e557-4861-b15e-12a3cee7d758}, !- Handle
  10.8753424657535,                       !- January Deep Ground Temperature {C}
  10.8753424657535,                       !- February Deep Ground Temperature {C}
  10.8753424657535,                       !- March Deep Ground Temperature {C}
  10.8753424657535,                       !- April Deep Ground Temperature {C}
  10.8753424657535,                       !- May Deep Ground Temperature {C}
  10.8753424657535,                       !- June Deep Ground Temperature {C}
  10.8753424657535,                       !- July Deep Ground Temperature {C}
  10.8753424657535,                       !- August Deep Ground Temperature {C}
  10.8753424657535,                       !- September Deep Ground Temperature {C}
  10.8753424657535,                       !- October Deep Ground Temperature {C}
  10.8753424657535,                       !- November Deep Ground Temperature {C}
  10.8753424657535;                       !- December Deep Ground Temperature {C}

OS:Building,
  {29bbd29c-7d05-4fee-9239-4ed444bc9be7}, !- Handle
  Building 1,                             !- Name
  ,                                       !- Building Sector Type
  0,                                      !- North Axis {deg}
  ,                                       !- Nominal Floor to Floor Height {m}
  ,                                       !- Space Type Name
  ,                                       !- Default Construction Set Name
  ,                                       !- Default Schedule Set Name
  3,                                      !- Standards Number of Stories
  2,                                      !- Standards Number of Above Ground Stories
  ,                                       !- Standards Template
  singlefamilydetached,                   !- Standards Building Type
  1;                                      !- Standards Number of Living Units

OS:AdditionalProperties,
  {fa888c3e-fb7b-4910-a6fa-ef0f045bbc4e}, !- Handle
  {29bbd29c-7d05-4fee-9239-4ed444bc9be7}, !- Object Name
  Total Units Represented,                !- Feature Name 1
  Integer,                                !- Feature Data Type 1
  1,                                      !- Feature Value 1
  Total Units Modeled,                    !- Feature Name 2
  Integer,                                !- Feature Data Type 2
  1,                                      !- Feature Value 2
  has_water_heater_flue,                  !- Feature Name 3
  Boolean,                                !- Feature Data Type 3
  true;                                   !- Feature Value 3

OS:ThermalZone,
  {bb438025-de7c-498f-a5e5-5c988e0be20b}, !- Handle
  living zone,                            !- Name
  ,                                       !- Multiplier
  ,                                       !- Ceiling Height {m}
  ,                                       !- Volume {m3}
  ,                                       !- Floor Area {m2}
  ,                                       !- Zone Inside Convection Algorithm
  ,                                       !- Zone Outside Convection Algorithm
  ,                                       !- Zone Conditioning Equipment List Name
  {df9e8230-4b48-4528-bce7-aebc6de38a02}, !- Zone Air Inlet Port List
  {50270253-a383-4542-a919-0e64704e552d}, !- Zone Air Exhaust Port List
  {7779f505-8609-4b84-82ae-306a5d77a0a9}, !- Zone Air Node Name
  {e0532e05-ef2d-4b27-a941-99a1fb2bf72a}, !- Zone Return Air Port List
  ,                                       !- Primary Daylighting Control Name
  ,                                       !- Fraction of Zone Controlled by Primary Daylighting Control
  ,                                       !- Secondary Daylighting Control Name
  ,                                       !- Fraction of Zone Controlled by Secondary Daylighting Control
  ,                                       !- Illuminance Map Name
  ,                                       !- Group Rendering Name
  ,                                       !- Thermostat Name
  No;                                     !- Use Ideal Air Loads

OS:Node,
  {c6740e32-1131-4661-a211-da57b0bf5ee7}, !- Handle
  Node 1,                                 !- Name
  {7779f505-8609-4b84-82ae-306a5d77a0a9}, !- Inlet Port
  ;                                       !- Outlet Port

OS:Connection,
  {7779f505-8609-4b84-82ae-306a5d77a0a9}, !- Handle
  {68a90399-d46b-462f-bd9e-7791dfd27481}, !- Name
  {bb438025-de7c-498f-a5e5-5c988e0be20b}, !- Source Object
  11,                                     !- Outlet Port
  {c6740e32-1131-4661-a211-da57b0bf5ee7}, !- Target Object
  2;                                      !- Inlet Port

OS:PortList,
  {df9e8230-4b48-4528-bce7-aebc6de38a02}, !- Handle
  {aa2b1fae-ace4-47fa-9d75-9d24ec0d1c05}, !- Name
  {bb438025-de7c-498f-a5e5-5c988e0be20b}; !- HVAC Component

OS:PortList,
  {50270253-a383-4542-a919-0e64704e552d}, !- Handle
  {33ce4d70-bf79-4b7d-8e50-c8fe6c3377bf}, !- Name
  {bb438025-de7c-498f-a5e5-5c988e0be20b}; !- HVAC Component

OS:PortList,
  {e0532e05-ef2d-4b27-a941-99a1fb2bf72a}, !- Handle
  {1d5d6885-52ba-4745-be1a-7680e3233e02}, !- Name
  {bb438025-de7c-498f-a5e5-5c988e0be20b}; !- HVAC Component

OS:Sizing:Zone,
  {2088dc10-2996-4478-a846-1426c64d403a}, !- Handle
  {bb438025-de7c-498f-a5e5-5c988e0be20b}, !- Zone or ZoneList Name
  SupplyAirTemperature,                   !- Zone Cooling Design Supply Air Temperature Input Method
  14,                                     !- Zone Cooling Design Supply Air Temperature {C}
  11.11,                                  !- Zone Cooling Design Supply Air Temperature Difference {deltaC}
  SupplyAirTemperature,                   !- Zone Heating Design Supply Air Temperature Input Method
  40,                                     !- Zone Heating Design Supply Air Temperature {C}
  11.11,                                  !- Zone Heating Design Supply Air Temperature Difference {deltaC}
  0.0085,                                 !- Zone Cooling Design Supply Air Humidity Ratio {kg-H2O/kg-air}
  0.008,                                  !- Zone Heating Design Supply Air Humidity Ratio {kg-H2O/kg-air}
  ,                                       !- Zone Heating Sizing Factor
  ,                                       !- Zone Cooling Sizing Factor
  DesignDay,                              !- Cooling Design Air Flow Method
  ,                                       !- Cooling Design Air Flow Rate {m3/s}
  ,                                       !- Cooling Minimum Air Flow per Zone Floor Area {m3/s-m2}
  ,                                       !- Cooling Minimum Air Flow {m3/s}
  ,                                       !- Cooling Minimum Air Flow Fraction
  DesignDay,                              !- Heating Design Air Flow Method
  ,                                       !- Heating Design Air Flow Rate {m3/s}
  ,                                       !- Heating Maximum Air Flow per Zone Floor Area {m3/s-m2}
  ,                                       !- Heating Maximum Air Flow {m3/s}
  ,                                       !- Heating Maximum Air Flow Fraction
  ,                                       !- Design Zone Air Distribution Effectiveness in Cooling Mode
  ,                                       !- Design Zone Air Distribution Effectiveness in Heating Mode
  No,                                     !- Account for Dedicated Outdoor Air System
  NeutralSupplyAir,                       !- Dedicated Outdoor Air System Control Strategy
  autosize,                               !- Dedicated Outdoor Air Low Setpoint Temperature for Design {C}
  autosize;                               !- Dedicated Outdoor Air High Setpoint Temperature for Design {C}

OS:ZoneHVAC:EquipmentList,
  {9a26ce3d-0e8e-4bdf-8ce5-0d6af910dda1}, !- Handle
  Zone HVAC Equipment List 1,             !- Name
  {bb438025-de7c-498f-a5e5-5c988e0be20b}; !- Thermal Zone

OS:ThermalZone,
  {b5b67401-5fb6-445b-b217-a5356dd3dd15}, !- Handle
  garage zone,                            !- Name
  ,                                       !- Multiplier
  ,                                       !- Ceiling Height {m}
  ,                                       !- Volume {m3}
  ,                                       !- Floor Area {m2}
  ,                                       !- Zone Inside Convection Algorithm
  ,                                       !- Zone Outside Convection Algorithm
  ,                                       !- Zone Conditioning Equipment List Name
  {989cab89-3511-4219-8467-e0249f36206c}, !- Zone Air Inlet Port List
  {bcd7d2aa-466e-42d9-881e-f11c4555b739}, !- Zone Air Exhaust Port List
  {15c35a4f-50b2-424b-a13c-fbf98e9946dc}, !- Zone Air Node Name
  {e588ef5d-0570-46e0-8e1d-fc617da03a14}, !- Zone Return Air Port List
  ,                                       !- Primary Daylighting Control Name
  ,                                       !- Fraction of Zone Controlled by Primary Daylighting Control
  ,                                       !- Secondary Daylighting Control Name
  ,                                       !- Fraction of Zone Controlled by Secondary Daylighting Control
  ,                                       !- Illuminance Map Name
  ,                                       !- Group Rendering Name
  ,                                       !- Thermostat Name
  No;                                     !- Use Ideal Air Loads

OS:Node,
  {e191a810-04ac-499d-9373-ed90622ae69a}, !- Handle
  Node 2,                                 !- Name
  {15c35a4f-50b2-424b-a13c-fbf98e9946dc}, !- Inlet Port
  ;                                       !- Outlet Port

OS:Connection,
  {15c35a4f-50b2-424b-a13c-fbf98e9946dc}, !- Handle
  {6557516c-b22f-4dab-991b-ebae99ff18ca}, !- Name
  {b5b67401-5fb6-445b-b217-a5356dd3dd15}, !- Source Object
  11,                                     !- Outlet Port
  {e191a810-04ac-499d-9373-ed90622ae69a}, !- Target Object
  2;                                      !- Inlet Port

OS:PortList,
  {989cab89-3511-4219-8467-e0249f36206c}, !- Handle
  {4da478cc-bcb7-4b24-a092-4c1e228b3b1a}, !- Name
  {b5b67401-5fb6-445b-b217-a5356dd3dd15}; !- HVAC Component

OS:PortList,
  {bcd7d2aa-466e-42d9-881e-f11c4555b739}, !- Handle
  {3b1b6fce-7cba-43fc-a2c4-15df1509e73a}, !- Name
  {b5b67401-5fb6-445b-b217-a5356dd3dd15}; !- HVAC Component

OS:PortList,
  {e588ef5d-0570-46e0-8e1d-fc617da03a14}, !- Handle
  {be7573ab-9eab-422e-bbdb-5bfe73f5f0c5}, !- Name
  {b5b67401-5fb6-445b-b217-a5356dd3dd15}; !- HVAC Component

OS:Sizing:Zone,
  {165ef6e9-01c6-43fd-a2c3-0371476f9cec}, !- Handle
  {b5b67401-5fb6-445b-b217-a5356dd3dd15}, !- Zone or ZoneList Name
  SupplyAirTemperature,                   !- Zone Cooling Design Supply Air Temperature Input Method
  14,                                     !- Zone Cooling Design Supply Air Temperature {C}
  11.11,                                  !- Zone Cooling Design Supply Air Temperature Difference {deltaC}
  SupplyAirTemperature,                   !- Zone Heating Design Supply Air Temperature Input Method
  40,                                     !- Zone Heating Design Supply Air Temperature {C}
  11.11,                                  !- Zone Heating Design Supply Air Temperature Difference {deltaC}
  0.0085,                                 !- Zone Cooling Design Supply Air Humidity Ratio {kg-H2O/kg-air}
  0.008,                                  !- Zone Heating Design Supply Air Humidity Ratio {kg-H2O/kg-air}
  ,                                       !- Zone Heating Sizing Factor
  ,                                       !- Zone Cooling Sizing Factor
  DesignDay,                              !- Cooling Design Air Flow Method
  ,                                       !- Cooling Design Air Flow Rate {m3/s}
  ,                                       !- Cooling Minimum Air Flow per Zone Floor Area {m3/s-m2}
  ,                                       !- Cooling Minimum Air Flow {m3/s}
  ,                                       !- Cooling Minimum Air Flow Fraction
  DesignDay,                              !- Heating Design Air Flow Method
  ,                                       !- Heating Design Air Flow Rate {m3/s}
  ,                                       !- Heating Maximum Air Flow per Zone Floor Area {m3/s-m2}
  ,                                       !- Heating Maximum Air Flow {m3/s}
  ,                                       !- Heating Maximum Air Flow Fraction
  ,                                       !- Design Zone Air Distribution Effectiveness in Cooling Mode
  ,                                       !- Design Zone Air Distribution Effectiveness in Heating Mode
  No,                                     !- Account for Dedicated Outdoor Air System
  NeutralSupplyAir,                       !- Dedicated Outdoor Air System Control Strategy
  autosize,                               !- Dedicated Outdoor Air Low Setpoint Temperature for Design {C}
  autosize;                               !- Dedicated Outdoor Air High Setpoint Temperature for Design {C}

OS:ZoneHVAC:EquipmentList,
  {586a277d-671f-4f1e-b447-482c2b59531d}, !- Handle
  Zone HVAC Equipment List 2,             !- Name
  {b5b67401-5fb6-445b-b217-a5356dd3dd15}; !- Thermal Zone

OS:Space,
  {32a3fb11-fdd4-4f60-a6dc-deef78129edc}, !- Handle
  garage space,                           !- Name
  {ccaa4f00-de5e-42fe-bf30-d0fe46f00af6}, !- Space Type Name
  ,                                       !- Default Construction Set Name
  ,                                       !- Default Schedule Set Name
  -0,                                     !- Direction of Relative North {deg}
  0,                                      !- X Origin {m}
  0,                                      !- Y Origin {m}
  0,                                      !- Z Origin {m}
  ,                                       !- Building Story Name
  {b5b67401-5fb6-445b-b217-a5356dd3dd15}; !- Thermal Zone Name

OS:Surface,
  {ab2b6af4-5095-4128-953c-04f7e0b7e06a}, !- Handle
  Surface 1,                              !- Name
  Floor,                                  !- Surface Type
  ,                                       !- Construction Name
  {32a3fb11-fdd4-4f60-a6dc-deef78129edc}, !- Space Name
  Foundation,                             !- Outside Boundary Condition
  ,                                       !- Outside Boundary Condition Object
  NoSun,                                  !- Sun Exposure
  NoWind,                                 !- Wind Exposure
  ,                                       !- View Factor to Ground
  ,                                       !- Number of Vertices
  5.57695129776527, -3.048, 0,            !- X,Y,Z Vertex 1 {m}
  5.57695129776527, 3.048, 0,             !- X,Y,Z Vertex 2 {m}
  11.6729512977653, 3.048, 0,             !- X,Y,Z Vertex 3 {m}
  11.6729512977653, -3.048, 0;            !- X,Y,Z Vertex 4 {m}

OS:Surface,
  {4c52dc0e-17da-40de-b7af-f7303b375237}, !- Handle
  Surface 2,                              !- Name
  Wall,                                   !- Surface Type
  ,                                       !- Construction Name
  {32a3fb11-fdd4-4f60-a6dc-deef78129edc}, !- Space Name
  Surface,                                !- Outside Boundary Condition
  {6b25e4c0-286b-47a5-9e94-c137aad91000}, !- Outside Boundary Condition Object
  NoSun,                                  !- Sun Exposure
  NoWind,                                 !- Wind Exposure
  ,                                       !- View Factor to Ground
  ,                                       !- Number of Vertices
  5.57695129776527, 3.048, 2.4384,        !- X,Y,Z Vertex 1 {m}
  5.57695129776527, 3.048, 0,             !- X,Y,Z Vertex 2 {m}
  5.57695129776527, 0, 0,                 !- X,Y,Z Vertex 3 {m}
  5.57695129776527, 0, 2.4384;            !- X,Y,Z Vertex 4 {m}

OS:Surface,
  {8d64c9b8-6674-46ce-9d3a-44c3fba648b8}, !- Handle
  Surface 3,                              !- Name
  Wall,                                   !- Surface Type
  ,                                       !- Construction Name
  {32a3fb11-fdd4-4f60-a6dc-deef78129edc}, !- Space Name
  Surface,                                !- Outside Boundary Condition
  {ed18a609-fb6e-4454-99f7-f319298da7d2}, !- Outside Boundary Condition Object
  NoSun,                                  !- Sun Exposure
  NoWind,                                 !- Wind Exposure
  ,                                       !- View Factor to Ground
  ,                                       !- Number of Vertices
  11.6729512977653, 3.048, 2.4384,        !- X,Y,Z Vertex 1 {m}
  11.6729512977653, 3.048, 0,             !- X,Y,Z Vertex 2 {m}
  5.57695129776527, 3.048, 0,             !- X,Y,Z Vertex 3 {m}
  5.57695129776527, 3.048, 2.4384;        !- X,Y,Z Vertex 4 {m}

OS:Surface,
  {12070205-0ae3-4741-924f-0ff6eb668e3c}, !- Handle
  Surface 4,                              !- Name
  Wall,                                   !- Surface Type
  ,                                       !- Construction Name
  {32a3fb11-fdd4-4f60-a6dc-deef78129edc}, !- Space Name
  Outdoors,                               !- Outside Boundary Condition