!- NOTE: Auto-generated from /test/osw_files/SFD_2000sqft_2story_FB_GRG_UA_3Beds_2Baths_Denver_WHTank_ClothesWasher_GasClothesDryer.osw

OS:Version,
  {c4405db9-c381-46f3-9086-d76fdeade435}, !- Handle
  2.9.0;                                  !- Version Identifier

OS:SimulationControl,
  {1f8252db-cb5d-400a-b719-3995d82ad7ce}, !- Handle
  ,                                       !- Do Zone Sizing Calculation
  ,                                       !- Do System Sizing Calculation
  ,                                       !- Do Plant Sizing Calculation
  No;                                     !- Run Simulation for Sizing Periods

OS:Timestep,
  {6f894811-bc29-465c-a685-e560fab9eed8}, !- Handle
  6;                                      !- Number of Timesteps per Hour

OS:ShadowCalculation,
  {61f3dd7e-fc62-4944-b93d-b1aa1b5d6aed}, !- Handle
  20,                                     !- Calculation Frequency
  200;                                    !- Maximum Figures in Shadow Overlap Calculations

OS:SurfaceConvectionAlgorithm:Outside,
  {a32e25b6-aefc-4f5d-b948-cef5c60392a3}, !- Handle
  DOE-2;                                  !- Algorithm

OS:SurfaceConvectionAlgorithm:Inside,
  {bbdb844d-5eda-46c6-8c38-ac6eb642db60}, !- Handle
  TARP;                                   !- Algorithm

OS:ZoneCapacitanceMultiplier:ResearchSpecial,
  {12a384c7-bd3b-4f1b-98e1-92cb00af2680}, !- Handle
  ,                                       !- Temperature Capacity Multiplier
  15,                                     !- Humidity Capacity Multiplier
  ;                                       !- Carbon Dioxide Capacity Multiplier

OS:RunPeriod,
  {944b51eb-29d3-4c7c-aabe-8aff9e5e474e}, !- Handle
  Run Period 1,                           !- Name
  1,                                      !- Begin Month
  1,                                      !- Begin Day of Month
  12,                                     !- End Month
  31,                                     !- End Day of Month
  ,                                       !- Use Weather File Holidays and Special Days
  ,                                       !- Use Weather File Daylight Saving Period
  ,                                       !- Apply Weekend Holiday Rule
  ,                                       !- Use Weather File Rain Indicators
  ,                                       !- Use Weather File Snow Indicators
  ;                                       !- Number of Times Runperiod to be Repeated

OS:YearDescription,
  {cc2ffc6d-09fe-43bd-86f7-904107206014}, !- Handle
  2007,                                   !- Calendar Year
  ,                                       !- Day of Week for Start Day
  ;                                       !- Is Leap Year

OS:ThermalZone,
  {c70029e0-5e42-403d-89ec-bd8b8c571ab7}, !- Handle
  living zone,                            !- Name
  ,                                       !- Multiplier
  ,                                       !- Ceiling Height {m}
  ,                                       !- Volume {m3}
  ,                                       !- Floor Area {m2}
  ,                                       !- Zone Inside Convection Algorithm
  ,                                       !- Zone Outside Convection Algorithm
  ,                                       !- Zone Conditioning Equipment List Name
  {40b6ea7e-7c55-441e-b9dc-d0a7840c2ae2}, !- Zone Air Inlet Port List
  {2f57c3a4-a601-46d3-be0a-25e5bd91b5f1}, !- Zone Air Exhaust Port List
  {38618c40-dfde-4d51-b5d8-9fd23858b890}, !- Zone Air Node Name
  {1aa8fcca-f1cb-40d3-9b67-b1405c835a9a}, !- Zone Return Air Port List
  ,                                       !- Primary Daylighting Control Name
  ,                                       !- Fraction of Zone Controlled by Primary Daylighting Control
  ,                                       !- Secondary Daylighting Control Name
  ,                                       !- Fraction of Zone Controlled by Secondary Daylighting Control
  ,                                       !- Illuminance Map Name
  ,                                       !- Group Rendering Name
  ,                                       !- Thermostat Name
  No;                                     !- Use Ideal Air Loads

OS:Node,
  {90780842-18d9-47fd-bd03-14ba24a33432}, !- Handle
  Node 1,                                 !- Name
  {38618c40-dfde-4d51-b5d8-9fd23858b890}, !- Inlet Port
  ;                                       !- Outlet Port

OS:Connection,
  {38618c40-dfde-4d51-b5d8-9fd23858b890}, !- Handle
  {d59bdad4-ba5f-412e-ab85-502a27fb654e}, !- Name
  {c70029e0-5e42-403d-89ec-bd8b8c571ab7}, !- Source Object
  11,                                     !- Outlet Port
  {90780842-18d9-47fd-bd03-14ba24a33432}, !- Target Object
  2;                                      !- Inlet Port

OS:PortList,
  {40b6ea7e-7c55-441e-b9dc-d0a7840c2ae2}, !- Handle
  {d4ff8d0a-015b-466b-a37f-9ce5e097cbbc}, !- Name
  {c70029e0-5e42-403d-89ec-bd8b8c571ab7}; !- HVAC Component

OS:PortList,
  {2f57c3a4-a601-46d3-be0a-25e5bd91b5f1}, !- Handle
  {c1dbbf90-27b7-450c-9518-7424a61a0dd2}, !- Name
  {c70029e0-5e42-403d-89ec-bd8b8c571ab7}; !- HVAC Component

OS:PortList,
  {1aa8fcca-f1cb-40d3-9b67-b1405c835a9a}, !- Handle
  {8cb4c1b1-2bbd-49df-ae2d-8585f7f83bca}, !- Name
  {c70029e0-5e42-403d-89ec-bd8b8c571ab7}; !- HVAC Component

OS:Sizing:Zone,
  {f565bc1f-7108-4b53-a9a8-e0b46241a302}, !- Handle
  {c70029e0-5e42-403d-89ec-bd8b8c571ab7}, !- Zone or ZoneList Name
  SupplyAirTemperature,                   !- Zone Cooling Design Supply Air Temperature Input Method
  14,                                     !- Zone Cooling Design Supply Air Temperature {C}
  11.11,                                  !- Zone Cooling Design Supply Air Temperature Difference {deltaC}
  SupplyAirTemperature,                   !- Zone Heating Design Supply Air Temperature Input Method
  40,                                     !- Zone Heating Design Supply Air Temperature {C}
  11.11,                                  !- Zone Heating Design Supply Air Temperature Difference {deltaC}
  0.0085,                                 !- Zone Cooling Design Supply Air Humidity Ratio {kg-H2O/kg-air}
  0.008,                                  !- Zone Heating Design Supply Air Humidity Ratio {kg-H2O/kg-air}
  ,                                       !- Zone Heating Sizing Factor
  ,                                       !- Zone Cooling Sizing Factor
  DesignDay,                              !- Cooling Design Air Flow Method
  ,                                       !- Cooling Design Air Flow Rate {m3/s}
  ,                                       !- Cooling Minimum Air Flow per Zone Floor Area {m3/s-m2}
  ,                                       !- Cooling Minimum Air Flow {m3/s}
  ,                                       !- Cooling Minimum Air Flow Fraction
  DesignDay,                              !- Heating Design Air Flow Method
  ,                                       !- Heating Design Air Flow Rate {m3/s}
  ,                                       !- Heating Maximum Air Flow per Zone Floor Area {m3/s-m2}
  ,                                       !- Heating Maximum Air Flow {m3/s}
  ,                                       !- Heating Maximum Air Flow Fraction
  ,                                       !- Design Zone Air Distribution Effectiveness in Cooling Mode
  ,                                       !- Design Zone Air Distribution Effectiveness in Heating Mode
  No,                                     !- Account for Dedicated Outdoor Air System
  NeutralSupplyAir,                       !- Dedicated Outdoor Air System Control Strategy
  autosize,                               !- Dedicated Outdoor Air Low Setpoint Temperature for Design {C}
  autosize;                               !- Dedicated Outdoor Air High Setpoint Temperature for Design {C}

OS:ZoneHVAC:EquipmentList,
  {c6094e68-1e63-4cc2-853f-fe53a068e959}, !- Handle
  Zone HVAC Equipment List 1,             !- Name
  {c70029e0-5e42-403d-89ec-bd8b8c571ab7}; !- Thermal Zone

OS:ThermalZone,
  {456855de-cca2-4460-a65b-d7f4de8f6dd1}, !- Handle
  garage zone,                            !- Name
  ,                                       !- Multiplier
  ,                                       !- Ceiling Height {m}
  ,                                       !- Volume {m3}
  ,                                       !- Floor Area {m2}
  ,                                       !- Zone Inside Convection Algorithm
  ,                                       !- Zone Outside Convection Algorithm
  ,                                       !- Zone Conditioning Equipment List Name
  {ba114970-07b5-4004-b012-5e34bbee7bd3}, !- Zone Air Inlet Port List
  {ba824c42-12e1-4892-b17e-82c001c79f69}, !- Zone Air Exhaust Port List
  {cf65fbc6-bbb4-4d26-802f-205e5c82ad48}, !- Zone Air Node Name
  {d6050050-203f-4b3f-b32b-fcd6a4c40403}, !- Zone Return Air Port List
  ,                                       !- Primary Daylighting Control Name
  ,                                       !- Fraction of Zone Controlled by Primary Daylighting Control
  ,                                       !- Secondary Daylighting Control Name
  ,                                       !- Fraction of Zone Controlled by Secondary Daylighting Control
  ,                                       !- Illuminance Map Name
  ,                                       !- Group Rendering Name
  ,                                       !- Thermostat Name
  No;                                     !- Use Ideal Air Loads

OS:Node,
  {40c471a0-324d-4cdb-9c80-4db8360e7b7a}, !- Handle
  Node 2,                                 !- Name
  {cf65fbc6-bbb4-4d26-802f-205e5c82ad48}, !- Inlet Port
  ;                                       !- Outlet Port

OS:Connection,
  {cf65fbc6-bbb4-4d26-802f-205e5c82ad48}, !- Handle
  {2f4deec8-4290-4032-8f19-b0e86747791d}, !- Name
  {456855de-cca2-4460-a65b-d7f4de8f6dd1}, !- Source Object
  11,                                     !- Outlet Port
  {40c471a0-324d-4cdb-9c80-4db8360e7b7a}, !- Target Object
  2;                                      !- Inlet Port

OS:PortList,
  {ba114970-07b5-4004-b012-5e34bbee7bd3}, !- Handle
  {98fd2aaf-7c63-4bb3-8e31-641b9c79d901}, !- Name
  {456855de-cca2-4460-a65b-d7f4de8f6dd1}; !- HVAC Component

OS:PortList,
  {ba824c42-12e1-4892-b17e-82c001c79f69}, !- Handle
  {c1a44848-5af0-4f58-a099-67bc1d10a573}, !- Name
  {456855de-cca2-4460-a65b-d7f4de8f6dd1}; !- HVAC Component

OS:PortList,
  {d6050050-203f-4b3f-b32b-fcd6a4c40403}, !- Handle
  {9017dbf2-3567-4294-bc8a-b470bf5592d9}, !- Name
  {456855de-cca2-4460-a65b-d7f4de8f6dd1}; !- HVAC Component

OS:Sizing:Zone,
  {29476637-750c-4cb6-a6d6-2c668fc9d0fb}, !- Handle
  {456855de-cca2-4460-a65b-d7f4de8f6dd1}, !- Zone or ZoneList Name
  SupplyAirTemperature,                   !- Zone Cooling Design Supply Air Temperature Input Method
  14,                                     !- Zone Cooling Design Supply Air Temperature {C}
  11.11,                                  !- Zone Cooling Design Supply Air Temperature Difference {deltaC}
  SupplyAirTemperature,                   !- Zone Heating Design Supply Air Temperature Input Method
  40,                                     !- Zone Heating Design Supply Air Temperature {C}
  11.11,                                  !- Zone Heating Design Supply Air Temperature Difference {deltaC}
  0.0085,                                 !- Zone Cooling Design Supply Air Humidity Ratio {kg-H2O/kg-air}
  0.008,                                  !- Zone Heating Design Supply Air Humidity Ratio {kg-H2O/kg-air}
  ,                                       !- Zone Heating Sizing Factor
  ,                                       !- Zone Cooling Sizing Factor
  DesignDay,                              !- Cooling Design Air Flow Method
  ,                                       !- Cooling Design Air Flow Rate {m3/s}
  ,                                       !- Cooling Minimum Air Flow per Zone Floor Area {m3/s-m2}
  ,                                       !- Cooling Minimum Air Flow {m3/s}
  ,                                       !- Cooling Minimum Air Flow Fraction
  DesignDay,                              !- Heating Design Air Flow Method
  ,                                       !- Heating Design Air Flow Rate {m3/s}
  ,                                       !- Heating Maximum Air Flow per Zone Floor Area {m3/s-m2}
  ,                                       !- Heating Maximum Air Flow {m3/s}
  ,                                       !- Heating Maximum Air Flow Fraction
  ,                                       !- Design Zone Air Distribution Effectiveness in Cooling Mode
  ,                                       !- Design Zone Air Distribution Effectiveness in Heating Mode
  No,                                     !- Account for Dedicated Outdoor Air System
  NeutralSupplyAir,                       !- Dedicated Outdoor Air System Control Strategy
  autosize,                               !- Dedicated Outdoor Air Low Setpoint Temperature for Design {C}
  autosize;                               !- Dedicated Outdoor Air High Setpoint Temperature for Design {C}

OS:ZoneHVAC:EquipmentList,
  {906b63cb-8627-400b-9d24-9e6a75b300d8}, !- Handle
  Zone HVAC Equipment List 2,             !- Name
  {456855de-cca2-4460-a65b-d7f4de8f6dd1}; !- Thermal Zone

OS:Space,
  {12923a67-8f13-4a57-b33e-75151a258279}, !- Handle
  garage space,                           !- Name
  {dc63daa2-6cf1-403e-ad15-802a015a74a0}, !- Space Type Name
  ,                                       !- Default Construction Set Name
  ,                                       !- Default Schedule Set Name
  -0,                                     !- Direction of Relative North {deg}
  0,                                      !- X Origin {m}
  0,                                      !- Y Origin {m}
  0,                                      !- Z Origin {m}
  ,                                       !- Building Story Name
  {456855de-cca2-4460-a65b-d7f4de8f6dd1}; !- Thermal Zone Name

OS:Surface,
  {280fab41-a2a1-425e-8c3a-e9da44e2d0a3}, !- Handle
  Surface 1,                              !- Name
  Floor,                                  !- Surface Type
  ,                                       !- Construction Name
  {12923a67-8f13-4a57-b33e-75151a258279}, !- Space Name
  Foundation,                             !- Outside Boundary Condition
  ,                                       !- Outside Boundary Condition Object
  NoSun,                                  !- Sun Exposure
  NoWind,                                 !- Wind Exposure
  ,                                       !- View Factor to Ground
  ,                                       !- Number of Vertices
  5.57695129776527, -3.048, 0,            !- X,Y,Z Vertex 1 {m}
  5.57695129776527, 3.048, 0,             !- X,Y,Z Vertex 2 {m}
  11.6729512977653, 3.048, 0,             !- X,Y,Z Vertex 3 {m}
  11.6729512977653, -3.048, 0;            !- X,Y,Z Vertex 4 {m}

OS:Surface,
  {4a449d9d-56ac-4937-85ab-54a9c3a56a38}, !- Handle
  Surface 2,                              !- Name
  Wall,                                   !- Surface Type
  ,                                       !- Construction Name
  {12923a67-8f13-4a57-b33e-75151a258279}, !- Space Name
  Surface,                                !- Outside Boundary Condition
  {03c49984-b39a-43a2-b46f-6528b6ab3da2}, !- Outside Boundary Condition Object
  NoSun,                                  !- Sun Exposure
  NoWind,                                 !- Wind Exposure
  ,                                       !- View Factor to Ground
  ,                                       !- Number of Vertices
  5.57695129776527, 3.048, 2.4384,        !- X,Y,Z Vertex 1 {m}
  5.57695129776527, 3.048, 0,             !- X,Y,Z Vertex 2 {m}
  5.57695129776527, 0, 0,                 !- X,Y,Z Vertex 3 {m}
  5.57695129776527, 0, 2.4384;            !- X,Y,Z Vertex 4 {m}

OS:Surface,
  {121109f0-2a99-4e40-9549-e425637c6af8}, !- Handle
  Surface 3,                              !- Name
  Wall,                                   !- Surface Type
  ,                                       !- Construction Name
  {12923a67-8f13-4a57-b33e-75151a258279}, !- Space Name
  Surface,                                !- Outside Boundary Condition
  {f25dd25e-5497-4ebf-9ff1-b8584a7b72ea}, !- Outside Boundary Condition Object
  NoSun,                                  !- Sun Exposure
  NoWind,                                 !- Wind Exposure
  ,                                       !- View Factor to Ground
  ,                                       !- Number of Vertices
  11.6729512977653, 3.048, 2.4384,        !- X,Y,Z Vertex 1 {m}
  11.6729512977653, 3.048, 0,             !- X,Y,Z Vertex 2 {m}
  5.57695129776527, 3.048, 0,             !- X,Y,Z Vertex 3 {m}
  5.57695129776527, 3.048, 2.4384;        !- X,Y,Z Vertex 4 {m}

OS:Surface,
  {ffb096c8-da91-4adb-a852-b4318ed1296b}, !- Handle
  Surface 4,                              !- Name
  Wall,                                   !- Surface Type
  ,                                       !- Construction Name
  {12923a67-8f13-4a57-b33e-75151a258279}, !- Space Name
  Outdoors,                               !- Outside Boundary Condition
  ,                                       !- Outside Boundary Condition Object
  SunExposed,                             !- Sun Exposure
  WindExposed,                            !- Wind Exposure
  ,                                       !- View Factor to Ground
  ,                                       !- Number of Vertices
  11.6729512977653, -3.048, 2.4384,       !- X,Y,Z Vertex 1 {m}
  11.6729512977653, -3.048, 0,            !- X,Y,Z Vertex 2 {m}
  11.6729512977653, 3.048, 0,             !- X,Y,Z Vertex 3 {m}
  11.6729512977653, 3.048, 2.4384;        !- X,Y,Z Vertex 4 {m}

OS:Surface,
  {03a0f988-abab-4c09-bafe-ea6bf88ea086}, !- Handle
  Surface 5,                              !- Name
  Wall,                                   !- Surface Type
  ,                                       !- Construction Name
  {12923a67-8f13-4a57-b33e-75151a258279}, !- Space Name
  Outdoors,                               !- Outside Boundary Condition
  ,                                       !- Outside Boundary Condition Object
  SunExposed,                             !- Sun Exposure
  WindExposed,                            !- Wind Exposure
  ,                                       !- View Factor to Ground
  ,                                       !- Number of Vertices
  5.57695129776527, -3.048, 2.4384,       !- X,Y,Z Vertex 1 {m}
  5.57695129776527, -3.048, 0,            !- X,Y,Z Vertex 2 {m}
  11.6729512977653, -3.048, 0,            !- X,Y,Z Vertex 3 {m}
  11.6729512977653, -3.048, 2.4384;       !- X,Y,Z Vertex 4 {m}

OS:Surface,
  {f3be5fe6-4bec-45ed-8e1f-cc45445fe7c7}, !- Handle
  Surface 6,                              !- Name
  RoofCeiling,                            !- Surface Type
  ,                                       !- Construction Name
  {12923a67-8f13-4a57-b33e-75151a258279}, !- Space Name
  Surface,                                !- Outside Boundary Condition
  {4a96ee04-68a0-476a-aab9-e558682ed1c9}, !- Outside Boundary Condition Object
  NoSun,                                  !- Sun Exposure
  NoWind,                                 !- Wind Exposure
  ,                                       !- View Factor to Ground
  ,                                       !- Number of Vertices
  11.6729512977653, -3.048, 2.4384,       !- X,Y,Z Vertex 1 {m}
  11.6729512977653, 3.048, 2.4384,        !- X,Y,Z Vertex 2 {m}
  5.57695129776527, 3.048, 2.4384,        !- X,Y,Z Vertex 3 {m}
  5.57695129776527, -3.048, 2.4384;       !- X,Y,Z Vertex 4 {m}

OS:SpaceType,
  {dc63daa2-6cf1-403e-ad15-802a015a74a0}, !- Handle
  Space Type 1,                           !- Name
  ,                                       !- Default Construction Set Name
  ,                                       !- Default Schedule Set Name
  ,                                       !- Group Rendering Name
  ,                                       !- Design Specification Outdoor Air Object Name
  ,                                       !- Standards Template
  ,                                       !- Standards Building Type
  garage;                                 !- Standards Space Type

OS:Space,
  {5fd66442-0a02-4b0e-bd02-30a51ab1dd2b}, !- Handle
  living space,                           !- Name
  {e7ad58ea-58b8-4118-9ef9-0c1672246350}, !- Space Type Name
  ,                                       !- Default Construction Set Name
  ,                                       !- Default Schedule Set Name
  -0,                                     !- Direction of Relative North {deg}
  0,                                      !- X Origin {m}
  0,                                      !- Y Origin {m}
  0,                                      !- Z Origin {m}
  ,                                       !- Building Story Name
  {c70029e0-5e42-403d-89ec-bd8b8c571ab7}, !- Thermal Zone Name
  ,                                       !- Part of Total Floor Area
  ,                                       !- Design Specification Outdoor Air Object Name
  {388a91ad-8c17-44e0-81c9-374dbb759b13}; !- Building Unit Name

OS:Surface,
  {a9fa7ae1-fcc2-420a-b167-56fb7e759921}, !- Handle
  Surface 7,                              !- Name
  Floor,                                  !- Surface Type
  ,                                       !- Construction Name
  {5fd66442-0a02-4b0e-bd02-30a51ab1dd2b}, !- Space Name
  Surface,                                !- Outside Boundary Condition
  {e22278dd-728a-4f1b-9402-99b1a4281174}, !- Outside Boundary Condition Object
  NoSun,                                  !- Sun Exposure
  NoWind,                                 !- Wind Exposure
  ,                                       !- View Factor to Ground
  ,                                       !- Number of Vertices
  0, 0, 0,                                !- X,Y,Z Vertex 1 {m}
  0, 5.83647564888264, 0,                 !- X,Y,Z Vertex 2 {m}
  11.6729512977653, 5.83647564888264, 0,  !- X,Y,Z Vertex 3 {m}
  11.6729512977653, 3.048, 0,             !- X,Y,Z Vertex 4 {m}
  5.57695129776527, 3.048, 0,             !- X,Y,Z Vertex 5 {m}
  5.57695129776527, 0, 0;                 !- X,Y,Z Vertex 6 {m}

OS:Surface,
  {a793f144-946d-48dc-8aa9-78a652f22971}, !- Handle
  Surface 8,                              !- Name
  Wall,                                   !- Surface Type
  ,                                       !- Construction Name
  {5fd66442-0a02-4b0e-bd02-30a51ab1dd2b}, !- Space Name
  Outdoors,                               !- Outside Boundary Condition
  ,                                       !- Outside Boundary Condition Object
  SunExposed,                             !- Sun Exposure
  WindExposed,                            !- Wind Exposure
  ,                                       !- View Factor to Ground
  ,                                       !- Number of Vertices
  0, 5.83647564888264, 2.4384,            !- X,Y,Z Vertex 1 {m}
  0, 5.83647564888264, 0,                 !- X,Y,Z Vertex 2 {m}
  0, 0, 0,                                !- X,Y,Z Vertex 3 {m}
  0, 0, 2.4384;                           !- X,Y,Z Vertex 4 {m}

OS:Surface,
  {9cbc4ebd-15dc-458f-ac5d-bc5e2b3fb411}, !- Handle
  Surface 9,                              !- Name
  Wall,                                   !- Surface Type
  ,                                       !- Construction Name
  {5fd66442-0a02-4b0e-bd02-30a51ab1dd2b}, !- Space Name
  Outdoors,                               !- Outside Boundary Condition
  ,                                       !- Outside Boundary Condition Object
  SunExposed,                             !- Sun Exposure
  WindExposed,                            !- Wind Exposure
  ,                                       !- View Factor to Ground
  ,                                       !- Number of Vertices
  11.6729512977653, 5.83647564888264, 2.4384, !- X,Y,Z Vertex 1 {m}
  11.6729512977653, 5.83647564888264, 0,  !- X,Y,Z Vertex 2 {m}
  0, 5.83647564888264, 0,                 !- X,Y,Z Vertex 3 {m}
  0, 5.83647564888264, 2.4384;            !- X,Y,Z Vertex 4 {m}

OS:Surface,
  {60f45b55-6af7-4134-a180-7125ce999982}, !- Handle
  Surface 10,                             !- Name
  Wall,                                   !- Surface Type
  ,                                       !- Construction Name
  {5fd66442-0a02-4b0e-bd02-30a51ab1dd2b}, !- Space Name
  Outdoors,                               !- Outside Boundary Condition
  ,                                       !- Outside Boundary Condition Object
  SunExposed,                             !- Sun Exposure
  WindExposed,                            !- Wind Exposure
  ,                                       !- View Factor to Ground
  ,                                       !- Number of Vertices
  11.6729512977653, 3.048, 2.4384,        !- X,Y,Z Vertex 1 {m}
  11.6729512977653, 3.048, 0,             !- X,Y,Z Vertex 2 {m}
  11.6729512977653, 5.83647564888264, 0,  !- X,Y,Z Vertex 3 {m}
  11.6729512977653, 5.83647564888264, 2.4384; !- X,Y,Z Vertex 4 {m}

OS:Surface,
  {f25dd25e-5497-4ebf-9ff1-b8584a7b72ea}, !- Handle
  Surface 11,                             !- Name
  Wall,                                   !- Surface Type
  ,                                       !- Construction Name
  {5fd66442-0a02-4b0e-bd02-30a51ab1dd2b}, !- Space Name
  Surface,                                !- Outside Boundary Condition
  {121109f0-2a99-4e40-9549-e425637c6af8}, !- Outside Boundary Condition Object
  NoSun,                                  !- Sun Exposure
  NoWind,                                 !- Wind Exposure
  ,                                       !- View Factor to Ground
  ,                                       !- Number of Vertices
  5.57695129776527, 3.048, 2.4384,        !- X,Y,Z Vertex 1 {m}
  5.57695129776527, 3.048, 0,             !- X,Y,Z Vertex 2 {m}
  11.6729512977653, 3.048, 0,             !- X,Y,Z Vertex 3 {m}
  11.6729512977653, 3.048, 2.4384;        !- X,Y,Z Vertex 4 {m}

OS:Surface,
  {03c49984-b39a-43a2-b46f-6528b6ab3da2}, !- Handle
  Surface 12,                             !- Name
  Wall,                                   !- Surface Type
  ,                                       !- Construction Name
  {5fd66442-0a02-4b0e-bd02-30a51ab1dd2b}, !- Space Name
  Surface,                                !- Outside Boundary Condition
  {4a449d9d-56ac-4937-85ab-54a9c3a56a38}, !- Outside Boundary Condition Object
  NoSun,                                  !- Sun Exposure
  NoWind,                                 !- Wind Exposure
  ,                                       !- View Factor to Ground
  ,                                       !- Number of Vertices
  5.57695129776527, 0, 2.4384,            !- X,Y,Z Vertex 1 {m}
  5.57695129776527, 0, 0,                 !- X,Y,Z Vertex 2 {m}
  5.57695129776527, 3.048, 0,             !- X,Y,Z Vertex 3 {m}
  5.57695129776527, 3.048, 2.4384;        !- X,Y,Z Vertex 4 {m}

OS:Surface,
  {946d688d-1146-4193-95df-986c81409faf}, !- Handle
  Surface 13,                             !- Name
  Wall,                                   !- Surface Type
  ,                                       !- Construction Name
  {5fd66442-0a02-4b0e-bd02-30a51ab1dd2b}, !- Space Name
  Outdoors,                               !- Outside Boundary Condition
  ,                                       !- Outside Boundary Condition Object
  SunExposed,                             !- Sun Exposure
  WindExposed,                            !- Wind Exposure
  ,                                       !- View Factor to Ground
  ,                                       !- Number of Vertices
  0, 0, 2.4384,                           !- X,Y,Z Vertex 1 {m}
  0, 0, 0,                                !- X,Y,Z Vertex 2 {m}
  5.57695129776527, 0, 0,                 !- X,Y,Z Vertex 3 {m}
  5.57695129776527, 0, 2.4384;            !- X,Y,Z Vertex 4 {m}

OS:Surface,
  {ea29756c-3d70-4fc1-80de-39dae41ee632}, !- Handle
  Surface 14,                             !- Name
  RoofCeiling,                            !- Surface Type
  ,                                       !- Construction Name
  {5fd66442-0a02-4b0e-bd02-30a51ab1dd2b}, !- Space Name
  Surface,                                !- Outside Boundary Condition
  {483dc574-950e-4980-b9d3-5f3fc4407830}, !- Outside Boundary Condition Object
  NoSun,                                  !- Sun Exposure
  NoWind,                                 !- Wind Exposure
  ,                                       !- View Factor to Ground
  ,                                       !- Number of Vertices
  5.57695129776527, 0, 2.4384,            !- X,Y,Z Vertex 1 {m}
  5.57695129776527, 3.048, 2.4384,        !- X,Y,Z Vertex 2 {m}
  11.6729512977653, 3.048, 2.4384,        !- X,Y,Z Vertex 3 {m}
  11.6729512977653, 5.83647564888264, 2.4384, !- X,Y,Z Vertex 4 {m}
  0, 5.83647564888264, 2.4384,            !- X,Y,Z Vertex 5 {m}
  0, 0, 2.4384;                           !- X,Y,Z Vertex 6 {m}

OS:SpaceType,
  {e7ad58ea-58b8-4118-9ef9-0c1672246350}, !- Handle
  Space Type 2,                           !- Name
  ,                                       !- Default Construction Set Name
  ,                                       !- Default Schedule Set Name
  ,                                       !- Group Rendering Name
  ,                                       !- Design Specification Outdoor Air Object Name
  ,                                       !- Standards Template
  ,                                       !- Standards Building Type
  living;                                 !- Standards Space Type

OS:Space,
  {1ecd750d-291d-4734-8e78-f44325d294e0}, !- Handle
  living space|story 2,                   !- Name
  {e7ad58ea-58b8-4118-9ef9-0c1672246350}, !- Space Type Name
  ,                                       !- Default Construction Set Name