!- NOTE: Auto-generated from /test/osw_files/SFD_2story_CS_UA_AC2_FuelBoiler_FuelTankWH.osw

OS:Version,
  {a4164c10-35f6-4ab7-b90d-21c1834dbfac}, !- Handle
  2.8.1;                                  !- Version Identifier

OS:SimulationControl,
  {1750fc1d-9f54-4769-a6ff-6ea065087818}, !- Handle
  ,                                       !- Do Zone Sizing Calculation
  ,                                       !- Do System Sizing Calculation
  ,                                       !- Do Plant Sizing Calculation
  No;                                     !- Run Simulation for Sizing Periods

OS:Timestep,
  {0948e7bf-1589-4130-b364-26c0e4e72087}, !- Handle
  6;                                      !- Number of Timesteps per Hour

OS:ShadowCalculation,
  {f0ae351d-fc2b-4f4a-a299-bec8638de1ec}, !- Handle
  20,                                     !- Calculation Frequency
  200;                                    !- Maximum Figures in Shadow Overlap Calculations

OS:SurfaceConvectionAlgorithm:Outside,
  {82b8593d-0dfc-4399-ae24-226941c3fca5}, !- Handle
  DOE-2;                                  !- Algorithm

OS:SurfaceConvectionAlgorithm:Inside,
  {2f194cc4-2094-4692-8cf6-a47b9db352ca}, !- Handle
  TARP;                                   !- Algorithm

OS:ZoneCapacitanceMultiplier:ResearchSpecial,
  {3bbcd3ac-9e83-4115-a0b6-73f711ce7d70}, !- Handle
  ,                                       !- Temperature Capacity Multiplier
  15,                                     !- Humidity Capacity Multiplier
  ;                                       !- Carbon Dioxide Capacity Multiplier

OS:RunPeriod,
  {94bb7131-97f4-48a9-872b-2a12405d4ae9}, !- Handle
  Run Period 1,                           !- Name
  1,                                      !- Begin Month
  1,                                      !- Begin Day of Month
  12,                                     !- End Month
  31,                                     !- End Day of Month
  ,                                       !- Use Weather File Holidays and Special Days
  ,                                       !- Use Weather File Daylight Saving Period
  ,                                       !- Apply Weekend Holiday Rule
  ,                                       !- Use Weather File Rain Indicators
  ,                                       !- Use Weather File Snow Indicators
  ;                                       !- Number of Times Runperiod to be Repeated

OS:YearDescription,
  {dad556e2-6d46-43b9-8676-41ccbe0e1946}, !- Handle
  2007,                                   !- Calendar Year
  ,                                       !- Day of Week for Start Day
  ;                                       !- Is Leap Year

OS:WeatherFile,
  {6a16d4b0-663a-4053-af6c-dc1936000ae5}, !- Handle
  Denver Intl Ap,                         !- City
  CO,                                     !- State Province Region
  USA,                                    !- Country
  TMY3,                                   !- Data Source
  725650,                                 !- WMO Number
  39.83,                                  !- Latitude {deg}
  -104.65,                                !- Longitude {deg}
  -7,                                     !- Time Zone {hr}
  1650,                                   !- Elevation {m}
  file:../weather/USA_CO_Denver.Intl.AP.725650_TMY3.epw, !- Url
  E23378AA;                               !- Checksum

OS:AdditionalProperties,
  {8267f815-1e16-4dbf-b7b1-b213142b25c4}, !- Handle
  {6a16d4b0-663a-4053-af6c-dc1936000ae5}, !- Object Name
  EPWHeaderCity,                          !- Feature Name 1
  String,                                 !- Feature Data Type 1
  Denver Intl Ap,                         !- Feature Value 1
  EPWHeaderState,                         !- Feature Name 2
  String,                                 !- Feature Data Type 2
  CO,                                     !- Feature Value 2
  EPWHeaderCountry,                       !- Feature Name 3
  String,                                 !- Feature Data Type 3
  USA,                                    !- Feature Value 3
  EPWHeaderDataSource,                    !- Feature Name 4
  String,                                 !- Feature Data Type 4
  TMY3,                                   !- Feature Value 4
  EPWHeaderStation,                       !- Feature Name 5
  String,                                 !- Feature Data Type 5
  725650,                                 !- Feature Value 5
  EPWHeaderLatitude,                      !- Feature Name 6
  Double,                                 !- Feature Data Type 6
  39.829999999999998,                     !- Feature Value 6
  EPWHeaderLongitude,                     !- Feature Name 7
  Double,                                 !- Feature Data Type 7
  -104.65000000000001,                    !- Feature Value 7
  EPWHeaderTimezone,                      !- Feature Name 8
  Double,                                 !- Feature Data Type 8
  -7,                                     !- Feature Value 8
  EPWHeaderAltitude,                      !- Feature Name 9
  Double,                                 !- Feature Data Type 9
  5413.3858267716532,                     !- Feature Value 9
  EPWHeaderLocalPressure,                 !- Feature Name 10
  Double,                                 !- Feature Data Type 10
  0.81937567683596546,                    !- Feature Value 10
  EPWHeaderRecordsPerHour,                !- Feature Name 11
  Double,                                 !- Feature Data Type 11
  0,                                      !- Feature Value 11
  EPWDataAnnualAvgDrybulb,                !- Feature Name 12
  Double,                                 !- Feature Data Type 12
  51.575616438356228,                     !- Feature Value 12
  EPWDataAnnualMinDrybulb,                !- Feature Name 13
  Double,                                 !- Feature Data Type 13
  -2.9200000000000017,                    !- Feature Value 13
  EPWDataAnnualMaxDrybulb,                !- Feature Name 14
  Double,                                 !- Feature Data Type 14
  104,                                    !- Feature Value 14
  EPWDataCDD50F,                          !- Feature Name 15
  Double,                                 !- Feature Data Type 15
  3072.2925000000005,                     !- Feature Value 15
  EPWDataCDD65F,                          !- Feature Name 16
  Double,                                 !- Feature Data Type 16
  883.62000000000035,                     !- Feature Value 16
  EPWDataHDD50F,                          !- Feature Name 17
  Double,                                 !- Feature Data Type 17
  2497.1925000000001,                     !- Feature Value 17
  EPWDataHDD65F,                          !- Feature Name 18
  Double,                                 !- Feature Data Type 18
  5783.5200000000013,                     !- Feature Value 18
  EPWDataAnnualAvgWindspeed,              !- Feature Name 19
  Double,                                 !- Feature Data Type 19
  3.9165296803649667,                     !- Feature Value 19
  EPWDataMonthlyAvgDrybulbs,              !- Feature Name 20
  String,                                 !- Feature Data Type 20
  33.4191935483871&#4431.90142857142857&#4443.02620967741937&#4442.48624999999999&#4459.877741935483854&#4473.57574999999997&#4472.07975806451608&#4472.70008064516134&#4466.49200000000006&#4450.079112903225806&#4437.218250000000005&#4434.582177419354835, !- Feature Value 20
  EPWDataGroundMonthlyTemps,              !- Feature Name 21
  String,                                 !- Feature Data Type 21
  44.08306285945173&#4440.89570904991865&#4440.64045432632048&#4442.153016571250646&#4448.225111118704206&#4454.268919273837525&#4459.508577937551024&#4462.82777283423508&#4463.10975667174995&#4460.41014950381947&#4455.304105212311526&#4449.445696474514364, !- Feature Value 21
  EPWDataWSF,                             !- Feature Name 22
  Double,                                 !- Feature Data Type 22
  0.58999999999999997,                    !- Feature Value 22
  EPWDataMonthlyAvgDailyHighDrybulbs,     !- Feature Name 23
  String,                                 !- Feature Data Type 23
  47.41032258064516&#4446.58642857142857&#4455.15032258064517&#4453.708&#4472.80193548387098&#4488.67600000000002&#4486.1858064516129&#4485.87225806451613&#4482.082&#4463.18064516129033&#4448.73400000000001&#4448.87935483870968, !- Feature Value 23
  EPWDataMonthlyAvgDailyLowDrybulbs,      !- Feature Name 24
  String,                                 !- Feature Data Type 24
  19.347741935483874&#4419.856428571428573&#4430.316129032258065&#4431.112&#4447.41612903225806&#4457.901999999999994&#4459.063870967741934&#4460.956774193548384&#4452.352000000000004&#4438.41612903225806&#4427.002000000000002&#4423.02903225806451, !- Feature Value 24
  EPWDesignHeatingDrybulb,                !- Feature Name 25
  Double,                                 !- Feature Data Type 25
  12.02,                                  !- Feature Value 25
  EPWDesignHeatingWindspeed,              !- Feature Name 26
  Double,                                 !- Feature Data Type 26
  2.8062500000000004,                     !- Feature Value 26
  EPWDesignCoolingDrybulb,                !- Feature Name 27
  Double,                                 !- Feature Data Type 27
  91.939999999999998,                     !- Feature Value 27
  EPWDesignCoolingWetbulb,                !- Feature Name 28
  Double,                                 !- Feature Data Type 28
  59.95131430195849,                      !- Feature Value 28
  EPWDesignCoolingHumidityRatio,          !- Feature Name 29
  Double,                                 !- Feature Data Type 29
  0.0059161086834698092,                  !- Feature Value 29
  EPWDesignCoolingWindspeed,              !- Feature Name 30
  Double,                                 !- Feature Data Type 30
  3.7999999999999989,                     !- Feature Value 30
  EPWDesignDailyTemperatureRange,         !- Feature Name 31
  Double,                                 !- Feature Data Type 31
  24.915483870967748,                     !- Feature Value 31
  EPWDesignDehumidDrybulb,                !- Feature Name 32
  Double,                                 !- Feature Data Type 32
  67.996785714285721,                     !- Feature Value 32
  EPWDesignDehumidHumidityRatio,          !- Feature Name 33
  Double,                                 !- Feature Data Type 33
  0.012133744170488724,                   !- Feature Value 33
  EPWDesignCoolingDirectNormal,           !- Feature Name 34
  Double,                                 !- Feature Data Type 34
  985,                                    !- Feature Value 34
  EPWDesignCoolingDiffuseHorizontal,      !- Feature Name 35
  Double,                                 !- Feature Data Type 35
  84;                                     !- Feature Value 35

OS:Site,
  {1eb255e6-f177-43c8-a8f1-4d2c76739223}, !- Handle
  Denver Intl Ap_CO_USA,                  !- Name
  39.83,                                  !- Latitude {deg}
  -104.65,                                !- Longitude {deg}
  -7,                                     !- Time Zone {hr}
  1650,                                   !- Elevation {m}
  Suburbs;                                !- Terrain

OS:ClimateZones,
  {80da73ac-9c8b-406f-bf6e-a719d1d70959}, !- Handle
  ,                                       !- Active Institution
  ,                                       !- Active Year
  ,                                       !- Climate Zone Institution Name 1
  ,                                       !- Climate Zone Document Name 1
  ,                                       !- Climate Zone Document Year 1
  ,                                       !- Climate Zone Value 1
  Building America,                       !- Climate Zone Institution Name 2
  ,                                       !- Climate Zone Document Name 2
  0,                                      !- Climate Zone Document Year 2
  Cold;                                   !- Climate Zone Value 2

OS:Site:WaterMainsTemperature,
  {8f16732f-78c6-4226-a862-82c711f4799b}, !- Handle
  Correlation,                            !- Calculation Method
  ,                                       !- Temperature Schedule Name
  10.8753424657535,                       !- Annual Average Outdoor Air Temperature {C}
  23.1524007936508;                       !- Maximum Difference In Monthly Average Outdoor Air Temperatures {deltaC}

OS:RunPeriodControl:DaylightSavingTime,
  {3c434f74-759e-43c0-941a-b148ea67e242}, !- Handle
  4/7,                                    !- Start Date
  10/26;                                  !- End Date

OS:Site:GroundTemperature:Deep,
  {48d040ff-f6cf-4539-ba58-14a062e3d004}, !- Handle
  10.8753424657535,                       !- January Deep Ground Temperature {C}
  10.8753424657535,                       !- February Deep Ground Temperature {C}
  10.8753424657535,                       !- March Deep Ground Temperature {C}
  10.8753424657535,                       !- April Deep Ground Temperature {C}
  10.8753424657535,                       !- May Deep Ground Temperature {C}
  10.8753424657535,                       !- June Deep Ground Temperature {C}
  10.8753424657535,                       !- July Deep Ground Temperature {C}
  10.8753424657535,                       !- August Deep Ground Temperature {C}
  10.8753424657535,                       !- September Deep Ground Temperature {C}
  10.8753424657535,                       !- October Deep Ground Temperature {C}
  10.8753424657535,                       !- November Deep Ground Temperature {C}
  10.8753424657535;                       !- December Deep Ground Temperature {C}

OS:ThermalZone,
  {9455cf64-6f59-48bd-bc30-430cfeb52202}, !- Handle
  living zone,                            !- Name
  ,                                       !- Multiplier
  ,                                       !- Ceiling Height {m}
  ,                                       !- Volume {m3}
  ,                                       !- Floor Area {m2}
  ,                                       !- Zone Inside Convection Algorithm
  ,                                       !- Zone Outside Convection Algorithm
  ,                                       !- Zone Conditioning Equipment List Name
  {e4b3b419-0020-459c-9ecf-161e137a9b91}, !- Zone Air Inlet Port List
  {a682631a-235d-4c1f-bd4c-d7129f82b6ea}, !- Zone Air Exhaust Port List
  {120d161e-c3e2-46a5-8aff-060729955a87}, !- Zone Air Node Name
  {6fdcd2c4-d0fa-4365-85c4-4752377de229}, !- Zone Return Air Port List
  ,                                       !- Primary Daylighting Control Name
  ,                                       !- Fraction of Zone Controlled by Primary Daylighting Control
  ,                                       !- Secondary Daylighting Control Name
  ,                                       !- Fraction of Zone Controlled by Secondary Daylighting Control
  ,                                       !- Illuminance Map Name
  ,                                       !- Group Rendering Name
  {48dc62a1-d88b-4d38-90a9-ab4554c0d921}, !- Thermostat Name
  No;                                     !- Use Ideal Air Loads

OS:Node,
  {66f89941-12e9-4521-833d-687292a3218e}, !- Handle
  Node 1,                                 !- Name
  {120d161e-c3e2-46a5-8aff-060729955a87}, !- Inlet Port
  ;                                       !- Outlet Port

OS:Connection,
  {120d161e-c3e2-46a5-8aff-060729955a87}, !- Handle
  {cf144282-e07e-482f-b482-4a80ba4dec01}, !- Name
  {9455cf64-6f59-48bd-bc30-430cfeb52202}, !- Source Object
  11,                                     !- Outlet Port
  {66f89941-12e9-4521-833d-687292a3218e}, !- Target Object
  2;                                      !- Inlet Port

OS:PortList,
  {e4b3b419-0020-459c-9ecf-161e137a9b91}, !- Handle
  {93ea3938-b7cc-4e95-a813-f5bf2644f025}, !- Name
  {9455cf64-6f59-48bd-bc30-430cfeb52202}, !- HVAC Component
  {5eb6e181-5843-4b4f-9f47-9040cbc18996}; !- Port 1

OS:PortList,
  {a682631a-235d-4c1f-bd4c-d7129f82b6ea}, !- Handle
  {c6ec487e-8c02-49e2-a9bd-78ac45267c7f}, !- Name
  {9455cf64-6f59-48bd-bc30-430cfeb52202}; !- HVAC Component

OS:PortList,
  {6fdcd2c4-d0fa-4365-85c4-4752377de229}, !- Handle
  {a8f35465-0216-4f7c-9767-57a5885fc4e1}, !- Name
  {9455cf64-6f59-48bd-bc30-430cfeb52202}, !- HVAC Component
  {9e6ebc5a-e756-4e43-b407-d317b6aa7073}; !- Port 1

OS:Sizing:Zone,
  {add24701-790d-41de-a970-d2f9a2ef187e}, !- Handle
  {9455cf64-6f59-48bd-bc30-430cfeb52202}, !- Zone or ZoneList Name
  SupplyAirTemperature,                   !- Zone Cooling Design Supply Air Temperature Input Method
  14,                                     !- Zone Cooling Design Supply Air Temperature {C}
  11.11,                                  !- Zone Cooling Design Supply Air Temperature Difference {deltaC}
  SupplyAirTemperature,                   !- Zone Heating Design Supply Air Temperature Input Method
  40,                                     !- Zone Heating Design Supply Air Temperature {C}
  11.11,                                  !- Zone Heating Design Supply Air Temperature Difference {deltaC}
  0.0085,                                 !- Zone Cooling Design Supply Air Humidity Ratio {kg-H2O/kg-air}
  0.008,                                  !- Zone Heating Design Supply Air Humidity Ratio {kg-H2O/kg-air}
  ,                                       !- Zone Heating Sizing Factor
  ,                                       !- Zone Cooling Sizing Factor
  DesignDay,                              !- Cooling Design Air Flow Method
  ,                                       !- Cooling Design Air Flow Rate {m3/s}
  ,                                       !- Cooling Minimum Air Flow per Zone Floor Area {m3/s-m2}
  ,                                       !- Cooling Minimum Air Flow {m3/s}
  ,                                       !- Cooling Minimum Air Flow Fraction
  DesignDay,                              !- Heating Design Air Flow Method
  ,                                       !- Heating Design Air Flow Rate {m3/s}
  ,                                       !- Heating Maximum Air Flow per Zone Floor Area {m3/s-m2}
  ,                                       !- Heating Maximum Air Flow {m3/s}
  ,                                       !- Heating Maximum Air Flow Fraction
  ,                                       !- Design Zone Air Distribution Effectiveness in Cooling Mode
  ,                                       !- Design Zone Air Distribution Effectiveness in Heating Mode
  No,                                     !- Account for Dedicated Outdoor Air System
  NeutralSupplyAir,                       !- Dedicated Outdoor Air System Control Strategy
  autosize,                               !- Dedicated Outdoor Air Low Setpoint Temperature for Design {C}
  autosize;                               !- Dedicated Outdoor Air High Setpoint Temperature for Design {C}

OS:ZoneHVAC:EquipmentList,
  {16e3c317-e4c0-4ec2-910a-880ab7d1f6ff}, !- Handle
  Zone HVAC Equipment List 1,             !- Name
  {9455cf64-6f59-48bd-bc30-430cfeb52202}, !- Thermal Zone
  SequentialLoad,                         !- Load Distribution Scheme
  {f86ac1a0-b4e3-4339-98d2-8acbded78fc9}, !- Zone Equipment 1
  1,                                      !- Zone Equipment Cooling Sequence 1
  1,                                      !- Zone Equipment Heating or No-Load Sequence 1
  ,                                       !- Zone Equipment Sequential Cooling Fraction 1
  ,                                       !- Zone Equipment Sequential Heating Fraction 1
  {c95d616e-420c-4931-b5c4-291a23fbf353}, !- Zone Equipment 2
  2,                                      !- Zone Equipment Cooling Sequence 2
  2,                                      !- Zone Equipment Heating or No-Load Sequence 2
  ,                                       !- Zone Equipment Sequential Cooling Fraction 2
  ;                                       !- Zone Equipment Sequential Heating Fraction 2

OS:Space,
  {4f863a9c-1c7e-45ef-9e19-42c27a4b7d0a}, !- Handle
  living space,                           !- Name
  {6c26078a-f3d3-44ae-96b2-6b7a22d212ce}, !- Space Type Name
  ,                                       !- Default Construction Set Name
  ,                                       !- Default Schedule Set Name
  -0,                                     !- Direction of Relative North {deg}
  0,                                      !- X Origin {m}
  0,                                      !- Y Origin {m}
  0,                                      !- Z Origin {m}
  ,                                       !- Building Story Name
  {9455cf64-6f59-48bd-bc30-430cfeb52202}, !- Thermal Zone Name
  ,                                       !- Part of Total Floor Area
  ,                                       !- Design Specification Outdoor Air Object Name
  {f2959db5-2ef6-43cb-90e5-ab17f69c2141}; !- Building Unit Name

OS:Surface,
  {47523152-ad20-4c6b-8f6b-ef8c75da4d7a}, !- Handle
  Surface 1,                              !- Name
  Floor,                                  !- Surface Type
  {10a366c1-1940-4a35-a7c2-fb244e5df4bd}, !- Construction Name
  {4f863a9c-1c7e-45ef-9e19-42c27a4b7d0a}, !- Space Name
  Surface,                                !- Outside Boundary Condition
  {fc690094-c00e-402c-84b0-ca9a991b9fe7}, !- Outside Boundary Condition Object
  NoSun,                                  !- Sun Exposure
  NoWind,                                 !- Wind Exposure
  ,                                       !- View Factor to Ground
  ,                                       !- Number of Vertices
  0, 0, 0,                                !- X,Y,Z Vertex 1 {m}
  0, 7.18420489685532, 0,                 !- X,Y,Z Vertex 2 {m}
  12.9315688143396, 7.18420489685532, 0,  !- X,Y,Z Vertex 3 {m}
  12.9315688143396, 0, 0;                 !- X,Y,Z Vertex 4 {m}

OS:Surface,
  {87f83862-72eb-4751-9e2f-b195fecbca23}, !- Handle
  Surface 2,                              !- Name
  Wall,                                   !- Surface Type
  {039e0720-a7de-4ef9-bfbb-644fd565d0c4}, !- Construction Name
  {4f863a9c-1c7e-45ef-9e19-42c27a4b7d0a}, !- Space Name
  Outdoors,                               !- Outside Boundary Condition
  ,                                       !- Outside Boundary Condition Object
  SunExposed,                             !- Sun Exposure
  WindExposed,                            !- Wind Exposure
  ,                                       !- View Factor to Ground
  ,                                       !- Number of Vertices
  0, 7.18420489685532, 2.4384,            !- X,Y,Z Vertex 1 {m}
  0, 7.18420489685532, 0,                 !- X,Y,Z Vertex 2 {m}
  0, 0, 0,                                !- X,Y,Z Vertex 3 {m}
  0, 0, 2.4384;                           !- X,Y,Z Vertex 4 {m}

OS:Surface,
  {c75b9bdc-9b5a-4bc5-9007-689aa234ab88}, !- Handle
  Surface 3,                              !- Name
  Wall,                                   !- Surface Type
  {039e0720-a7de-4ef9-bfbb-644fd565d0c4}, !- Construction Name
  {4f863a9c-1c7e-45ef-9e19-42c27a4b7d0a}, !- Space Name
  Outdoors,                               !- Outside Boundary Condition
  ,                                       !- Outside Boundary Condition Object
  SunExposed,                             !- Sun Exposure
  WindExposed,                            !- Wind Exposure
  ,                                       !- View Factor to Ground
  ,                                       !- Number of Vertices
  12.9315688143396, 7.18420489685532, 2.4384, !- X,Y,Z Vertex 1 {m}
  12.9315688143396, 7.18420489685532, 0,  !- X,Y,Z Vertex 2 {m}
  0, 7.18420489685532, 0,                 !- X,Y,Z Vertex 3 {m}
  0, 7.18420489685532, 2.4384;            !- X,Y,Z Vertex 4 {m}

OS:Surface,
  {1090816b-df45-483f-a02b-868701a7b87d}, !- Handle
  Surface 4,                              !- Name
  Wall,                                   !- Surface Type
  {039e0720-a7de-4ef9-bfbb-644fd565d0c4}, !- Construction Name
  {4f863a9c-1c7e-45ef-9e19-42c27a4b7d0a}, !- Space Name
  Outdoors,                               !- Outside Boundary Condition
  ,                                       !- Outside Boundary Condition Object
  SunExposed,                             !- Sun Exposure
  WindExposed,                            !- Wind Exposure
  ,                                       !- View Factor to Ground
  ,                                       !- Number of Vertices
  12.9315688143396, 0, 2.4384,            !- X,Y,Z Vertex 1 {m}
  12.9315688143396, 0, 0,                 !- X,Y,Z Vertex 2 {m}
  12.9315688143396, 7.18420489685532, 0,  !- X,Y,Z Vertex 3 {m}
  12.9315688143396, 7.18420489685532, 2.4384; !- X,Y,Z Vertex 4 {m}

OS:Surface,
  {7ba94fd5-7077-4365-8393-ed5afe9d0f17}, !- Handle
  Surface 5,                              !- Name
  Wall,                                   !- Surface Type
  {039e0720-a7de-4ef9-bfbb-644fd565d0c4}, !- Construction Name
  {4f863a9c-1c7e-45ef-9e19-42c27a4b7d0a}, !- Space Name
  Outdoors,                               !- Outside Boundary Condition
  ,                                       !- Outside Boundary Condition Object
  SunExposed,                             !- Sun Exposure
  WindExposed,                            !- Wind Exposure
  ,                                       !- View Factor to Ground
  ,                                       !- Number of Vertices
  12.9315688143396, 0, 0,                 !- X,Y,Z Vertex 1 {m}
  12.9315688143396, 0, 2.4384,            !- X,Y,Z Vertex 2 {m}
  1.04865714285714, 0, 2.4384,            !- X,Y,Z Vertex 3 {m}
  1.04865714285714, 0, 0;                 !- X,Y,Z Vertex 4 {m}

OS:Surface,
  {04c06e8f-d803-42b4-8684-1fe39d6e5a6f}, !- Handle
  Surface 6,                              !- Name
  RoofCeiling,                            !- Surface Type
  {7725551b-abb4-4cf1-8acf-de5754431e51}, !- Construction Name
  {4f863a9c-1c7e-45ef-9e19-42c27a4b7d0a}, !- Space Name
  Surface,                                !- Outside Boundary Condition
  {7736f126-aa2c-42ac-b44d-a95550778bde}, !- Outside Boundary Condition Object
  NoSun,                                  !- Sun Exposure
  NoWind,                                 !- Wind Exposure
  ,                                       !- View Factor to Ground
  ,                                       !- Number of Vertices
  12.9315688143396, 0, 2.4384,            !- X,Y,Z Vertex 1 {m}
  12.9315688143396, 7.18420489685532, 2.4384, !- X,Y,Z Vertex 2 {m}
  0, 7.18420489685532, 2.4384,            !- X,Y,Z Vertex 3 {m}
  0, 0, 2.4384;                           !- X,Y,Z Vertex 4 {m}

OS:SpaceType,
  {6c26078a-f3d3-44ae-96b2-6b7a22d212ce}, !- Handle
  Space Type 1,                           !- Name
  ,                                       !- Default Construction Set Name
  ,                                       !- Default Schedule Set Name
  ,                                       !- Group Rendering Name
  ,                                       !- Design Specification Outdoor Air Object Name
  ,                                       !- Standards Template
  ,                                       !- Standards Building Type
  living;                                 !- Standards Space Type

OS:Space,
  {6c951ab2-68fb-4dc2-b2eb-7d2bddbc9126}, !- Handle
  living space|story 2,                   !- Name
  {6c26078a-f3d3-44ae-96b2-6b7a22d212ce}, !- Space Type Name
  ,                                       !- Default Construction Set Name
  ,                                       !- Default Schedule Set Name
  -0,                                     !- Direction of Relative North {deg}
  0,                                      !- X Origin {m}
  0,                                      !- Y Origin {m}
  2.4384,                                 !- Z Origin {m}
  ,                                       !- Building Story Name
  {9455cf64-6f59-48bd-bc30-430cfeb52202}, !- Thermal Zone Name
  ,                                       !- Part of Total Floor Area
  ,                                       !- Design Specification Outdoor Air Object Name
  {f2959db5-2ef6-43cb-90e5-ab17f69c2141}; !- Building Unit Name

OS:Surface,
  {7736f126-aa2c-42ac-b44d-a95550778bde}, !- Handle
  Surface 7,                              !- Name
  Floor,                                  !- Surface Type
  {6aa42613-9c37-457a-aa89-5182bd16679e}, !- Construction Name
  {6c951ab2-68fb-4dc2-b2eb-7d2bddbc9126}, !- Space Name
  Surface,                                !- Outside Boundary Condition
  {04c06e8f-d803-42b4-8684-1fe39d6e5a6f}, !- Outside Boundary Condition Object
  NoSun,                                  !- Sun Exposure
  NoWind,                                 !- Wind Exposure
  ,                                       !- View Factor to Ground
  ,                                       !- Number of Vertices
  0, 0, 0,                                !- X,Y,Z Vertex 1 {m}
  0, 7.18420489685532, 0,                 !- X,Y,Z Vertex 2 {m}
  12.9315688143396, 7.18420489685532, 0,  !- X,Y,Z Vertex 3 {m}
  12.9315688143396, 0, 0;                 !- X,Y,Z Vertex 4 {m}

OS:Surface,
  {e5e64a09-f18d-429a-9451-2399ea923784}, !- Handle
  Surface 8,                              !- Name
  Wall,                                   !- Surface Type
  {039e0720-a7de-4ef9-bfbb-644fd565d0c4}, !- Construction Name
  {6c951ab2-68fb-4dc2-b2eb-7d2bddbc9126}, !- Space Name
  Outdoors,                               !- Outside Boundary Condition
  ,                                       !- Outside Boundary Condition Object
  SunExposed,                             !- Sun Exposure
  WindExposed,                            !- Wind Exposure
  ,                                       !- View Factor to Ground
  ,                                       !- Number of Vertices
  0, 7.18420489685532, 2.4384,            !- X,Y,Z Vertex 1 {m}