!- NOTE: Auto-generated from /test/osw_files/SFD_2000sqft_2story_FB_GRG_UA_3Beds_2Baths_Denver_WHTank_HWFixtures.osw

OS:Version,
  {7f0fc136-9c08-459e-a922-3f3ff3362e5f}, !- Handle
  2.9.0;                                  !- Version Identifier

OS:SimulationControl,
  {db24b09c-9c8f-474c-ba7f-61c6df48d808}, !- Handle
  ,                                       !- Do Zone Sizing Calculation
  ,                                       !- Do System Sizing Calculation
  ,                                       !- Do Plant Sizing Calculation
  No;                                     !- Run Simulation for Sizing Periods

OS:Timestep,
  {5597538a-9701-4fcb-b4b7-15609c3b04b1}, !- Handle
  6;                                      !- Number of Timesteps per Hour

OS:ShadowCalculation,
  {c747c656-f3fb-4464-add6-a5962f60b92c}, !- Handle
  20,                                     !- Calculation Frequency
  200;                                    !- Maximum Figures in Shadow Overlap Calculations

OS:SurfaceConvectionAlgorithm:Outside,
  {a6f92a2e-f100-4772-adfb-f299f5e43725}, !- Handle
  DOE-2;                                  !- Algorithm

OS:SurfaceConvectionAlgorithm:Inside,
  {f331765e-32aa-406e-bae5-3ac1616602cc}, !- Handle
  TARP;                                   !- Algorithm

OS:ZoneCapacitanceMultiplier:ResearchSpecial,
  {c6567609-c44a-4c22-b9a8-eed9bcf79c77}, !- Handle
  ,                                       !- Temperature Capacity Multiplier
  15,                                     !- Humidity Capacity Multiplier
  ;                                       !- Carbon Dioxide Capacity Multiplier

OS:RunPeriod,
  {2ed463d8-1647-4ff7-a11d-b94dadd5a29a}, !- Handle
  Run Period 1,                           !- Name
  1,                                      !- Begin Month
  1,                                      !- Begin Day of Month
  12,                                     !- End Month
  31,                                     !- End Day of Month
  ,                                       !- Use Weather File Holidays and Special Days
  ,                                       !- Use Weather File Daylight Saving Period
  ,                                       !- Apply Weekend Holiday Rule
  ,                                       !- Use Weather File Rain Indicators
  ,                                       !- Use Weather File Snow Indicators
  ;                                       !- Number of Times Runperiod to be Repeated

OS:YearDescription,
  {29514928-6ad2-482f-9cf3-3bfbe9190ddb}, !- Handle
  2007,                                   !- Calendar Year
  ,                                       !- Day of Week for Start Day
  ;                                       !- Is Leap Year

OS:ThermalZone,
  {a289baa3-1f01-4f0a-91d4-e94f2612365b}, !- Handle
  living zone,                            !- Name
  ,                                       !- Multiplier
  ,                                       !- Ceiling Height {m}
  ,                                       !- Volume {m3}
  ,                                       !- Floor Area {m2}
  ,                                       !- Zone Inside Convection Algorithm
  ,                                       !- Zone Outside Convection Algorithm
  ,                                       !- Zone Conditioning Equipment List Name
  {bfa2494f-b465-49e6-a18d-6523d6770cfa}, !- Zone Air Inlet Port List
  {ac31a52d-b259-4d10-950f-2ea574c7fe7d}, !- Zone Air Exhaust Port List
  {8a22b922-36ad-4f6e-b64f-de2dc2c4683c}, !- Zone Air Node Name
  {9edfc5a3-3ae6-4709-bc13-739461862d45}, !- Zone Return Air Port List
  ,                                       !- Primary Daylighting Control Name
  ,                                       !- Fraction of Zone Controlled by Primary Daylighting Control
  ,                                       !- Secondary Daylighting Control Name
  ,                                       !- Fraction of Zone Controlled by Secondary Daylighting Control
  ,                                       !- Illuminance Map Name
  ,                                       !- Group Rendering Name
  ,                                       !- Thermostat Name
  No;                                     !- Use Ideal Air Loads

OS:Node,
  {4b82294e-aca5-4f89-91bf-f02496673f84}, !- Handle
  Node 1,                                 !- Name
  {8a22b922-36ad-4f6e-b64f-de2dc2c4683c}, !- Inlet Port
  ;                                       !- Outlet Port

OS:Connection,
  {8a22b922-36ad-4f6e-b64f-de2dc2c4683c}, !- Handle
  {d28a4a9c-d4af-4d68-b783-8c44e1208066}, !- Name
  {a289baa3-1f01-4f0a-91d4-e94f2612365b}, !- Source Object
  11,                                     !- Outlet Port
  {4b82294e-aca5-4f89-91bf-f02496673f84}, !- Target Object
  2;                                      !- Inlet Port

OS:PortList,
  {bfa2494f-b465-49e6-a18d-6523d6770cfa}, !- Handle
  {770147d4-28f6-4c51-a03e-6e1efa1a5a04}, !- Name
  {a289baa3-1f01-4f0a-91d4-e94f2612365b}; !- HVAC Component

OS:PortList,
  {ac31a52d-b259-4d10-950f-2ea574c7fe7d}, !- Handle
  {f3b5bda7-f72d-4181-86de-4d50bd4db86e}, !- Name
  {a289baa3-1f01-4f0a-91d4-e94f2612365b}; !- HVAC Component

OS:PortList,
  {9edfc5a3-3ae6-4709-bc13-739461862d45}, !- Handle
  {1d934730-4600-429b-b759-d006944068fd}, !- Name
  {a289baa3-1f01-4f0a-91d4-e94f2612365b}; !- HVAC Component

OS:Sizing:Zone,
  {3a030898-3bae-4f20-9653-a89fa28b9f59}, !- Handle
  {a289baa3-1f01-4f0a-91d4-e94f2612365b}, !- Zone or ZoneList Name
  SupplyAirTemperature,                   !- Zone Cooling Design Supply Air Temperature Input Method
  14,                                     !- Zone Cooling Design Supply Air Temperature {C}
  11.11,                                  !- Zone Cooling Design Supply Air Temperature Difference {deltaC}
  SupplyAirTemperature,                   !- Zone Heating Design Supply Air Temperature Input Method
  40,                                     !- Zone Heating Design Supply Air Temperature {C}
  11.11,                                  !- Zone Heating Design Supply Air Temperature Difference {deltaC}
  0.0085,                                 !- Zone Cooling Design Supply Air Humidity Ratio {kg-H2O/kg-air}
  0.008,                                  !- Zone Heating Design Supply Air Humidity Ratio {kg-H2O/kg-air}
  ,                                       !- Zone Heating Sizing Factor
  ,                                       !- Zone Cooling Sizing Factor
  DesignDay,                              !- Cooling Design Air Flow Method
  ,                                       !- Cooling Design Air Flow Rate {m3/s}
  ,                                       !- Cooling Minimum Air Flow per Zone Floor Area {m3/s-m2}
  ,                                       !- Cooling Minimum Air Flow {m3/s}
  ,                                       !- Cooling Minimum Air Flow Fraction
  DesignDay,                              !- Heating Design Air Flow Method
  ,                                       !- Heating Design Air Flow Rate {m3/s}
  ,                                       !- Heating Maximum Air Flow per Zone Floor Area {m3/s-m2}
  ,                                       !- Heating Maximum Air Flow {m3/s}
  ,                                       !- Heating Maximum Air Flow Fraction
  ,                                       !- Design Zone Air Distribution Effectiveness in Cooling Mode
  ,                                       !- Design Zone Air Distribution Effectiveness in Heating Mode
  No,                                     !- Account for Dedicated Outdoor Air System
  NeutralSupplyAir,                       !- Dedicated Outdoor Air System Control Strategy
  autosize,                               !- Dedicated Outdoor Air Low Setpoint Temperature for Design {C}
  autosize;                               !- Dedicated Outdoor Air High Setpoint Temperature for Design {C}

OS:ZoneHVAC:EquipmentList,
  {2b9c7a89-db79-4b7a-8c27-6b39194489bd}, !- Handle
  Zone HVAC Equipment List 1,             !- Name
  {a289baa3-1f01-4f0a-91d4-e94f2612365b}; !- Thermal Zone

OS:ThermalZone,
  {3f4bad33-4ad1-4ed8-b885-ed9d91f98ee8}, !- Handle
  garage zone,                            !- Name
  ,                                       !- Multiplier
  ,                                       !- Ceiling Height {m}
  ,                                       !- Volume {m3}
  ,                                       !- Floor Area {m2}
  ,                                       !- Zone Inside Convection Algorithm
  ,                                       !- Zone Outside Convection Algorithm
  ,                                       !- Zone Conditioning Equipment List Name
  {484682ef-a536-438f-85e6-a213e6ec1931}, !- Zone Air Inlet Port List
  {adc193ac-05fc-41b0-abca-6afd0eb77aa5}, !- Zone Air Exhaust Port List
  {ba05518d-e8e8-4410-a537-fbb033735afc}, !- Zone Air Node Name
  {d46b729c-187a-423b-902e-0a56d0a3309e}, !- Zone Return Air Port List
  ,                                       !- Primary Daylighting Control Name
  ,                                       !- Fraction of Zone Controlled by Primary Daylighting Control
  ,                                       !- Secondary Daylighting Control Name
  ,                                       !- Fraction of Zone Controlled by Secondary Daylighting Control
  ,                                       !- Illuminance Map Name
  ,                                       !- Group Rendering Name
  ,                                       !- Thermostat Name
  No;                                     !- Use Ideal Air Loads

OS:Node,
  {a4c502f0-cc11-4e46-a6e4-fc08cda59c47}, !- Handle
  Node 2,                                 !- Name
  {ba05518d-e8e8-4410-a537-fbb033735afc}, !- Inlet Port
  ;                                       !- Outlet Port

OS:Connection,
  {ba05518d-e8e8-4410-a537-fbb033735afc}, !- Handle
  {7eeb01ff-793d-4d51-860b-7c80ab6fc725}, !- Name
  {3f4bad33-4ad1-4ed8-b885-ed9d91f98ee8}, !- Source Object
  11,                                     !- Outlet Port
  {a4c502f0-cc11-4e46-a6e4-fc08cda59c47}, !- Target Object
  2;                                      !- Inlet Port

OS:PortList,
  {484682ef-a536-438f-85e6-a213e6ec1931}, !- Handle
  {9c27f550-1b8d-417d-994c-6cec3859eaf1}, !- Name
  {3f4bad33-4ad1-4ed8-b885-ed9d91f98ee8}; !- HVAC Component

OS:PortList,
  {adc193ac-05fc-41b0-abca-6afd0eb77aa5}, !- Handle
  {889157b1-11f4-4700-82a6-6f1a8f9297b7}, !- Name
  {3f4bad33-4ad1-4ed8-b885-ed9d91f98ee8}; !- HVAC Component

OS:PortList,
  {d46b729c-187a-423b-902e-0a56d0a3309e}, !- Handle
  {d835248b-a16f-46b5-b01a-181450ba7e1f}, !- Name
  {3f4bad33-4ad1-4ed8-b885-ed9d91f98ee8}; !- HVAC Component

OS:Sizing:Zone,
  {2105e840-cf99-459d-8f25-bea240106034}, !- Handle
  {3f4bad33-4ad1-4ed8-b885-ed9d91f98ee8}, !- Zone or ZoneList Name
  SupplyAirTemperature,                   !- Zone Cooling Design Supply Air Temperature Input Method
  14,                                     !- Zone Cooling Design Supply Air Temperature {C}
  11.11,                                  !- Zone Cooling Design Supply Air Temperature Difference {deltaC}
  SupplyAirTemperature,                   !- Zone Heating Design Supply Air Temperature Input Method
  40,                                     !- Zone Heating Design Supply Air Temperature {C}
  11.11,                                  !- Zone Heating Design Supply Air Temperature Difference {deltaC}
  0.0085,                                 !- Zone Cooling Design Supply Air Humidity Ratio {kg-H2O/kg-air}
  0.008,                                  !- Zone Heating Design Supply Air Humidity Ratio {kg-H2O/kg-air}
  ,                                       !- Zone Heating Sizing Factor
  ,                                       !- Zone Cooling Sizing Factor
  DesignDay,                              !- Cooling Design Air Flow Method
  ,                                       !- Cooling Design Air Flow Rate {m3/s}
  ,                                       !- Cooling Minimum Air Flow per Zone Floor Area {m3/s-m2}
  ,                                       !- Cooling Minimum Air Flow {m3/s}
  ,                                       !- Cooling Minimum Air Flow Fraction
  DesignDay,                              !- Heating Design Air Flow Method
  ,                                       !- Heating Design Air Flow Rate {m3/s}
  ,                                       !- Heating Maximum Air Flow per Zone Floor Area {m3/s-m2}
  ,                                       !- Heating Maximum Air Flow {m3/s}
  ,                                       !- Heating Maximum Air Flow Fraction
  ,                                       !- Design Zone Air Distribution Effectiveness in Cooling Mode
  ,                                       !- Design Zone Air Distribution Effectiveness in Heating Mode
  No,                                     !- Account for Dedicated Outdoor Air System
  NeutralSupplyAir,                       !- Dedicated Outdoor Air System Control Strategy
  autosize,                               !- Dedicated Outdoor Air Low Setpoint Temperature for Design {C}
  autosize;                               !- Dedicated Outdoor Air High Setpoint Temperature for Design {C}

OS:ZoneHVAC:EquipmentList,
  {0d9f8d85-af3e-4cfb-bfea-f073760137a9}, !- Handle
  Zone HVAC Equipment List 2,             !- Name
  {3f4bad33-4ad1-4ed8-b885-ed9d91f98ee8}; !- Thermal Zone

OS:Space,
  {868adce1-2b41-4a25-a5b0-64b621a98a70}, !- Handle
  garage space,                           !- Name
  {a32aca11-c46d-4ae4-b1bd-c756f119f078}, !- Space Type Name
  ,                                       !- Default Construction Set Name
  ,                                       !- Default Schedule Set Name
  -0,                                     !- Direction of Relative North {deg}
  0,                                      !- X Origin {m}
  0,                                      !- Y Origin {m}
  0,                                      !- Z Origin {m}
  ,                                       !- Building Story Name
  {3f4bad33-4ad1-4ed8-b885-ed9d91f98ee8}; !- Thermal Zone Name

OS:Surface,
  {12629363-bbcf-4fd4-b54c-c8e333bbb18b}, !- Handle
  Surface 1,                              !- Name
  Floor,                                  !- Surface Type
  ,                                       !- Construction Name
  {868adce1-2b41-4a25-a5b0-64b621a98a70}, !- Space Name
  Foundation,                             !- Outside Boundary Condition
  ,                                       !- Outside Boundary Condition Object
  NoSun,                                  !- Sun Exposure
  NoWind,                                 !- Wind Exposure
  ,                                       !- View Factor to Ground
  ,                                       !- Number of Vertices
  5.57695129776527, -3.048, 0,            !- X,Y,Z Vertex 1 {m}
  5.57695129776527, 3.048, 0,             !- X,Y,Z Vertex 2 {m}
  11.6729512977653, 3.048, 0,             !- X,Y,Z Vertex 3 {m}
  11.6729512977653, -3.048, 0;            !- X,Y,Z Vertex 4 {m}

OS:Surface,
  {4fd683bd-e2bf-4b97-8aab-8c397bd2d4f5}, !- Handle
  Surface 2,                              !- Name
  Wall,                                   !- Surface Type
  ,                                       !- Construction Name
  {868adce1-2b41-4a25-a5b0-64b621a98a70}, !- Space Name
  Surface,                                !- Outside Boundary Condition
  {b854acb8-c1b1-4956-a853-7e28fe06b27e}, !- Outside Boundary Condition Object
  NoSun,                                  !- Sun Exposure
  NoWind,                                 !- Wind Exposure
  ,                                       !- View Factor to Ground
  ,                                       !- Number of Vertices
  5.57695129776527, 3.048, 2.4384,        !- X,Y,Z Vertex 1 {m}
  5.57695129776527, 3.048, 0,             !- X,Y,Z Vertex 2 {m}
  5.57695129776527, 0, 0,                 !- X,Y,Z Vertex 3 {m}
  5.57695129776527, 0, 2.4384;            !- X,Y,Z Vertex 4 {m}

OS:Surface,
  {01134f29-1a97-4f42-bc80-383a9eed5c6e}, !- Handle
  Surface 3,                              !- Name
  Wall,                                   !- Surface Type
  ,                                       !- Construction Name
  {868adce1-2b41-4a25-a5b0-64b621a98a70}, !- Space Name
  Surface,                                !- Outside Boundary Condition
  {6f6f6e33-3e62-4f70-a85f-740c91c75588}, !- Outside Boundary Condition Object
  NoSun,                                  !- Sun Exposure
  NoWind,                                 !- Wind Exposure
  ,                                       !- View Factor to Ground
  ,                                       !- Number of Vertices
  11.6729512977653, 3.048, 2.4384,        !- X,Y,Z Vertex 1 {m}
  11.6729512977653, 3.048, 0,             !- X,Y,Z Vertex 2 {m}
  5.57695129776527, 3.048, 0,             !- X,Y,Z Vertex 3 {m}
  5.57695129776527, 3.048, 2.4384;        !- X,Y,Z Vertex 4 {m}

OS:Surface,
  {af23e417-d084-4ba8-baef-99a4909a5278}, !- Handle
  Surface 4,                              !- Name
  Wall,                                   !- Surface Type
  ,                                       !- Construction Name
  {868adce1-2b41-4a25-a5b0-64b621a98a70}, !- Space Name
  Outdoors,                               !- Outside Boundary Condition
  ,                                       !- Outside Boundary Condition Object
  SunExposed,                             !- Sun Exposure
  WindExposed,                            !- Wind Exposure
  ,                                       !- View Factor to Ground
  ,                                       !- Number of Vertices
  11.6729512977653, -3.048, 2.4384,       !- X,Y,Z Vertex 1 {m}
  11.6729512977653, -3.048, 0,            !- X,Y,Z Vertex 2 {m}
  11.6729512977653, 3.048, 0,             !- X,Y,Z Vertex 3 {m}
  11.6729512977653, 3.048, 2.4384;        !- X,Y,Z Vertex 4 {m}

OS:Surface,
  {7a2f924b-e64b-4441-aa38-2f3cdf0271bf}, !- Handle
  Surface 5,                              !- Name
  Wall,                                   !- Surface Type
  ,                                       !- Construction Name
  {868adce1-2b41-4a25-a5b0-64b621a98a70}, !- Space Name
  Outdoors,                               !- Outside Boundary Condition
  ,                                       !- Outside Boundary Condition Object
  SunExposed,                             !- Sun Exposure
  WindExposed,                            !- Wind Exposure
  ,                                       !- View Factor to Ground
  ,                                       !- Number of Vertices
  5.57695129776527, -3.048, 2.4384,       !- X,Y,Z Vertex 1 {m}
  5.57695129776527, -3.048, 0,            !- X,Y,Z Vertex 2 {m}
  11.6729512977653, -3.048, 0,            !- X,Y,Z Vertex 3 {m}
  11.6729512977653, -3.048, 2.4384;       !- X,Y,Z Vertex 4 {m}

OS:Surface,
  {024ef919-cf40-48f4-a707-91f247933b53}, !- Handle
  Surface 6,                              !- Name
  RoofCeiling,                            !- Surface Type
  ,                                       !- Construction Name
  {868adce1-2b41-4a25-a5b0-64b621a98a70}, !- Space Name
  Surface,                                !- Outside Boundary Condition
  {8045839d-29a6-42b2-83d4-bdb5f33d07c7}, !- Outside Boundary Condition Object
  NoSun,                                  !- Sun Exposure
  NoWind,                                 !- Wind Exposure
  ,                                       !- View Factor to Ground
  ,                                       !- Number of Vertices
  11.6729512977653, -3.048, 2.4384,       !- X,Y,Z Vertex 1 {m}
  11.6729512977653, 3.048, 2.4384,        !- X,Y,Z Vertex 2 {m}
  5.57695129776527, 3.048, 2.4384,        !- X,Y,Z Vertex 3 {m}
  5.57695129776527, -3.048, 2.4384;       !- X,Y,Z Vertex 4 {m}

OS:SpaceType,
  {a32aca11-c46d-4ae4-b1bd-c756f119f078}, !- Handle
  Space Type 1,                           !- Name
  ,                                       !- Default Construction Set Name
  ,                                       !- Default Schedule Set Name
  ,                                       !- Group Rendering Name
  ,                                       !- Design Specification Outdoor Air Object Name
  ,                                       !- Standards Template
  ,                                       !- Standards Building Type
  garage;                                 !- Standards Space Type

OS:Space,
  {db65b993-21a1-473a-b909-9a38dcbe8ed4}, !- Handle
  living space,                           !- Name
  {f3008e22-2191-49cb-a465-d133bb8b89a3}, !- Space Type Name
  ,                                       !- Default Construction Set Name
  ,                                       !- Default Schedule Set Name
  -0,                                     !- Direction of Relative North {deg}
  0,                                      !- X Origin {m}
  0,                                      !- Y Origin {m}
  0,                                      !- Z Origin {m}
  ,                                       !- Building Story Name
  {a289baa3-1f01-4f0a-91d4-e94f2612365b}, !- Thermal Zone Name
  ,                                       !- Part of Total Floor Area
  ,                                       !- Design Specification Outdoor Air Object Name
  {8b66f623-165b-4635-a8b4-584407999350}; !- Building Unit Name

OS:Surface,
  {91f2d8f0-a5e6-4d62-b799-4d2008bfd7d3}, !- Handle
  Surface 7,                              !- Name
  Floor,                                  !- Surface Type
  ,                                       !- Construction Name
  {db65b993-21a1-473a-b909-9a38dcbe8ed4}, !- Space Name
  Surface,                                !- Outside Boundary Condition
  {29d09e4c-053d-4a95-a4d4-84d0157c039f}, !- Outside Boundary Condition Object
  NoSun,                                  !- Sun Exposure
  NoWind,                                 !- Wind Exposure
  ,                                       !- View Factor to Ground
  ,                                       !- Number of Vertices
  0, 0, 0,                                !- X,Y,Z Vertex 1 {m}
  0, 5.83647564888264, 0,                 !- X,Y,Z Vertex 2 {m}
  11.6729512977653, 5.83647564888264, 0,  !- X,Y,Z Vertex 3 {m}
  11.6729512977653, 3.048, 0,             !- X,Y,Z Vertex 4 {m}
  5.57695129776527, 3.048, 0,             !- X,Y,Z Vertex 5 {m}
  5.57695129776527, 0, 0;                 !- X,Y,Z Vertex 6 {m}

OS:Surface,
  {651b80f7-30e1-49bd-b40a-f08ada764a07}, !- Handle
  Surface 8,                              !- Name
  Wall,                                   !- Surface Type
  ,                                       !- Construction Name
  {db65b993-21a1-473a-b909-9a38dcbe8ed4}, !- Space Name
  Outdoors,                               !- Outside Boundary Condition
  ,                                       !- Outside Boundary Condition Object
  SunExposed,                             !- Sun Exposure
  WindExposed,                            !- Wind Exposure
  ,                                       !- View Factor to Ground
  ,                                       !- Number of Vertices
  0, 5.83647564888264, 2.4384,            !- X,Y,Z Vertex 1 {m}
  0, 5.83647564888264, 0,                 !- X,Y,Z Vertex 2 {m}
  0, 0, 0,                                !- X,Y,Z Vertex 3 {m}
  0, 0, 2.4384;                           !- X,Y,Z Vertex 4 {m}

OS:Surface,
  {e5edabdd-144a-4b29-8d0c-2ddfe71a39ea}, !- Handle
  Surface 9,                              !- Name
  Wall,                                   !- Surface Type
  ,                                       !- Construction Name
  {db65b993-21a1-473a-b909-9a38dcbe8ed4}, !- Space Name
  Outdoors,                               !- Outside Boundary Condition
  ,                                       !- Outside Boundary Condition Object
  SunExposed,                             !- Sun Exposure
  WindExposed,                            !- Wind Exposure
  ,                                       !- View Factor to Ground
  ,                                       !- Number of Vertices
  11.6729512977653, 5.83647564888264, 2.4384, !- X,Y,Z Vertex 1 {m}
  11.6729512977653, 5.83647564888264, 0,  !- X,Y,Z Vertex 2 {m}
  0, 5.83647564888264, 0,                 !- X,Y,Z Vertex 3 {m}
  0, 5.83647564888264, 2.4384;            !- X,Y,Z Vertex 4 {m}

OS:Surface,
  {f87122b8-43c2-4b95-813f-85ca25189863}, !- Handle
  Surface 10,                             !- Name
  Wall,                                   !- Surface Type
  ,                                       !- Construction Name
  {db65b993-21a1-473a-b909-9a38dcbe8ed4}, !- Space Name
  Outdoors,                               !- Outside Boundary Condition
  ,                                       !- Outside Boundary Condition Object
  SunExposed,                             !- Sun Exposure
  WindExposed,                            !- Wind Exposure
  ,                                       !- View Factor to Ground
  ,                                       !- Number of Vertices
  11.6729512977653, 3.048, 2.4384,        !- X,Y,Z Vertex 1 {m}
  11.6729512977653, 3.048, 0,             !- X,Y,Z Vertex 2 {m}
  11.6729512977653, 5.83647564888264, 0,  !- X,Y,Z Vertex 3 {m}
  11.6729512977653, 5.83647564888264, 2.4384; !- X,Y,Z Vertex 4 {m}

OS:Surface,
  {6f6f6e33-3e62-4f70-a85f-740c91c75588}, !- Handle
  Surface 11,                             !- Name
  Wall,                                   !- Surface Type
  ,                                       !- Construction Name
  {db65b993-21a1-473a-b909-9a38dcbe8ed4}, !- Space Name
  Surface,                                !- Outside Boundary Condition
  {01134f29-1a97-4f42-bc80-383a9eed5c6e}, !- Outside Boundary Condition Object
  NoSun,                                  !- Sun Exposure
  NoWind,                                 !- Wind Exposure
  ,                                       !- View Factor to Ground
  ,                                       !- Number of Vertices
  5.57695129776527, 3.048, 2.4384,        !- X,Y,Z Vertex 1 {m}
  5.57695129776527, 3.048, 0,             !- X,Y,Z Vertex 2 {m}
  11.6729512977653, 3.048, 0,             !- X,Y,Z Vertex 3 {m}
  11.6729512977653, 3.048, 2.4384;        !- X,Y,Z Vertex 4 {m}

OS:Surface,
  {b854acb8-c1b1-4956-a853-7e28fe06b27e}, !- Handle
  Surface 12,                             !- Name
  Wall,                                   !- Surface Type
  ,                                       !- Construction Name
  {db65b993-21a1-473a-b909-9a38dcbe8ed4}, !- Space Name
  Surface,                                !- Outside Boundary Condition
  {4fd683bd-e2bf-4b97-8aab-8c397bd2d4f5}, !- Outside Boundary Condition Object
  NoSun,                                  !- Sun Exposure
  NoWind,                                 !- Wind Exposure
  ,                                       !- View Factor to Ground
  ,                                       !- Number of Vertices
  5.57695129776527, 0, 2.4384,            !- X,Y,Z Vertex 1 {m}
  5.57695129776527, 0, 0,                 !- X,Y,Z Vertex 2 {m}
  5.57695129776527, 3.048, 0,             !- X,Y,Z Vertex 3 {m}
  5.57695129776527, 3.048, 2.4384;        !- X,Y,Z Vertex 4 {m}

OS:Surface,
  {e285c9af-ab5e-4ae7-9d32-ad3f9d13531f}, !- Handle
  Surface 13,                             !- Name
  Wall,                                   !- Surface Type
  ,                                       !- Construction Name
  {db65b993-21a1-473a-b909-9a38dcbe8ed4}, !- Space Name
  Outdoors,                               !- Outside Boundary Condition
  ,                                       !- Outside Boundary Condition Object
  SunExposed,                             !- Sun Exposure
  WindExposed,                            !- Wind Exposure
  ,                                       !- View Factor to Ground
  ,                                       !- Number of Vertices
  0, 0, 2.4384,                           !- X,Y,Z Vertex 1 {m}
  0, 0, 0,                                !- X,Y,Z Vertex 2 {m}
  5.57695129776527, 0, 0,                 !- X,Y,Z Vertex 3 {m}
  5.57695129776527, 0, 2.4384;            !- X,Y,Z Vertex 4 {m}

OS:Surface,
  {ef24896a-8ddf-4cf7-98aa-3e8c3d1998d0}, !- Handle
  Surface 14,                             !- Name
  RoofCeiling,                            !- Surface Type
  ,                                       !- Construction Name
  {db65b993-21a1-473a-b909-9a38dcbe8ed4}, !- Space Name
  Surface,                                !- Outside Boundary Condition
  {52d597e9-a696-404b-ba2c-9d45cc7644ee}, !- Outside Boundary Condition Object
  NoSun,                                  !- Sun Exposure
  NoWind,                                 !- Wind Exposure
  ,                                       !- View Factor to Ground
  ,                                       !- Number of Vertices
  5.57695129776527, 0, 2.4384,            !- X,Y,Z Vertex 1 {m}
  5.57695129776527, 3.048, 2.4384,        !- X,Y,Z Vertex 2 {m}
  11.6729512977653, 3.048, 2.4384,        !- X,Y,Z Vertex 3 {m}
  11.6729512977653, 5.83647564888264, 2.4384, !- X,Y,Z Vertex 4 {m}
  0, 5.83647564888264, 2.4384,            !- X,Y,Z Vertex 5 {m}
  0, 0, 2.4384;                           !- X,Y,Z Vertex 6 {m}

OS:SpaceType,
  {f3008e22-2191-49cb-a465-d133bb8b89a3}, !- Handle
  Space Type 2,                           !- Name
  ,                                       !- Default Construction Set Name
  ,                                       !- Default Schedule Set Name
  ,                                       !- Group Rendering Name
  ,                                       !- Design Specification Outdoor Air Object Name
  ,                                       !- Standards Template
  ,                                       !- Standards Building Type
  living;                                 !- Standards Space Type

OS:Space,
  {e23995e4-d356-41e6-b0a6-334190377ea0}, !- Handle
  living space|story 2,                   !- Name
  {f3008e22-2191-49cb-a465-d133bb8b89a3}, !- Space Type Name
  ,                                       !- Default Construction Set Name