!- NOTE: Auto-generated from /test/osw_files/SFD_2000sqft_2story_FB_GRG_UA_3Beds_2Baths_Denver.osw

OS:Version,
  {bc65515b-a1eb-474d-9bb0-ea8595b139d2}, !- Handle
  2.8.1;                                  !- Version Identifier

OS:SimulationControl,
  {9f905055-7d78-4482-96dc-05441f2bf6ef}, !- Handle
  ,                                       !- Do Zone Sizing Calculation
  ,                                       !- Do System Sizing Calculation
  ,                                       !- Do Plant Sizing Calculation
  No;                                     !- Run Simulation for Sizing Periods

OS:Timestep,
  {c03ec60d-103b-4b68-bf7e-3162ef236aca}, !- Handle
  6;                                      !- Number of Timesteps per Hour

OS:ShadowCalculation,
  {e6a7b621-304e-4442-b5ac-269173019f95}, !- Handle
  20,                                     !- Calculation Frequency
  200;                                    !- Maximum Figures in Shadow Overlap Calculations

OS:SurfaceConvectionAlgorithm:Outside,
  {13d14639-dd20-4b19-b9d1-6b5c090179e0}, !- Handle
  DOE-2;                                  !- Algorithm

OS:SurfaceConvectionAlgorithm:Inside,
  {a48c89f7-0c7f-4e7b-8539-6af94abb80e2}, !- Handle
  TARP;                                   !- Algorithm

OS:ZoneCapacitanceMultiplier:ResearchSpecial,
  {6e8b7fca-7452-40ba-83ef-c7accf048498}, !- Handle
  ,                                       !- Temperature Capacity Multiplier
  15,                                     !- Humidity Capacity Multiplier
  ;                                       !- Carbon Dioxide Capacity Multiplier

OS:RunPeriod,
  {c4429ba3-5a04-4c5d-b134-485950431deb}, !- Handle
  Run Period 1,                           !- Name
  1,                                      !- Begin Month
  1,                                      !- Begin Day of Month
  12,                                     !- End Month
  31,                                     !- End Day of Month
  ,                                       !- Use Weather File Holidays and Special Days
  ,                                       !- Use Weather File Daylight Saving Period
  ,                                       !- Apply Weekend Holiday Rule
  ,                                       !- Use Weather File Rain Indicators
  ,                                       !- Use Weather File Snow Indicators
  ;                                       !- Number of Times Runperiod to be Repeated

OS:YearDescription,
  {fdbb59f5-3ce6-473d-a1b2-5403de1cf3fd}, !- Handle
  2007,                                   !- Calendar Year
  ,                                       !- Day of Week for Start Day
  ;                                       !- Is Leap Year

OS:ThermalZone,
  {f07e0ab6-e393-41c4-ba89-aa38576961e9}, !- Handle
  living zone,                            !- Name
  ,                                       !- Multiplier
  ,                                       !- Ceiling Height {m}
  ,                                       !- Volume {m3}
  ,                                       !- Floor Area {m2}
  ,                                       !- Zone Inside Convection Algorithm
  ,                                       !- Zone Outside Convection Algorithm
  ,                                       !- Zone Conditioning Equipment List Name
  {cd4e9507-4d76-4770-bafd-dcf8b9c76091}, !- Zone Air Inlet Port List
  {a98d8701-e051-4ba4-bc41-c241b50a7695}, !- Zone Air Exhaust Port List
  {148f73a6-c5fe-4887-bc09-f3a465084e65}, !- Zone Air Node Name
  {296f556c-7c75-4310-a7ed-562370dc648e}, !- Zone Return Air Port List
  ,                                       !- Primary Daylighting Control Name
  ,                                       !- Fraction of Zone Controlled by Primary Daylighting Control
  ,                                       !- Secondary Daylighting Control Name
  ,                                       !- Fraction of Zone Controlled by Secondary Daylighting Control
  ,                                       !- Illuminance Map Name
  ,                                       !- Group Rendering Name
  ,                                       !- Thermostat Name
  No;                                     !- Use Ideal Air Loads

OS:Node,
  {aef8f9b1-6163-4669-938e-c1ad4e5843c5}, !- Handle
  Node 1,                                 !- Name
  {148f73a6-c5fe-4887-bc09-f3a465084e65}, !- Inlet Port
  ;                                       !- Outlet Port

OS:Connection,
  {148f73a6-c5fe-4887-bc09-f3a465084e65}, !- Handle
  {e45c9ef1-963b-42d0-96f2-fccf0fc65768}, !- Name
  {f07e0ab6-e393-41c4-ba89-aa38576961e9}, !- Source Object
  11,                                     !- Outlet Port
  {aef8f9b1-6163-4669-938e-c1ad4e5843c5}, !- Target Object
  2;                                      !- Inlet Port

OS:PortList,
  {cd4e9507-4d76-4770-bafd-dcf8b9c76091}, !- Handle
  {e24bcf68-f6bd-4bb0-accb-88599f078f67}, !- Name
  {f07e0ab6-e393-41c4-ba89-aa38576961e9}; !- HVAC Component

OS:PortList,
  {a98d8701-e051-4ba4-bc41-c241b50a7695}, !- Handle
  {0ce30fe8-54b6-4b49-a7b3-a6c90fd7d92c}, !- Name
  {f07e0ab6-e393-41c4-ba89-aa38576961e9}; !- HVAC Component

OS:PortList,
  {296f556c-7c75-4310-a7ed-562370dc648e}, !- Handle
  {f5c87a07-639f-4708-b1f7-1c59db10373d}, !- Name
  {f07e0ab6-e393-41c4-ba89-aa38576961e9}; !- HVAC Component

OS:Sizing:Zone,
  {7356d0de-913a-4628-a67e-0051964bbafe}, !- Handle
  {f07e0ab6-e393-41c4-ba89-aa38576961e9}, !- Zone or ZoneList Name
  SupplyAirTemperature,                   !- Zone Cooling Design Supply Air Temperature Input Method
  14,                                     !- Zone Cooling Design Supply Air Temperature {C}
  11.11,                                  !- Zone Cooling Design Supply Air Temperature Difference {deltaC}
  SupplyAirTemperature,                   !- Zone Heating Design Supply Air Temperature Input Method
  40,                                     !- Zone Heating Design Supply Air Temperature {C}
  11.11,                                  !- Zone Heating Design Supply Air Temperature Difference {deltaC}
  0.0085,                                 !- Zone Cooling Design Supply Air Humidity Ratio {kg-H2O/kg-air}
  0.008,                                  !- Zone Heating Design Supply Air Humidity Ratio {kg-H2O/kg-air}
  ,                                       !- Zone Heating Sizing Factor
  ,                                       !- Zone Cooling Sizing Factor
  DesignDay,                              !- Cooling Design Air Flow Method
  ,                                       !- Cooling Design Air Flow Rate {m3/s}
  ,                                       !- Cooling Minimum Air Flow per Zone Floor Area {m3/s-m2}
  ,                                       !- Cooling Minimum Air Flow {m3/s}
  ,                                       !- Cooling Minimum Air Flow Fraction
  DesignDay,                              !- Heating Design Air Flow Method
  ,                                       !- Heating Design Air Flow Rate {m3/s}
  ,                                       !- Heating Maximum Air Flow per Zone Floor Area {m3/s-m2}
  ,                                       !- Heating Maximum Air Flow {m3/s}
  ,                                       !- Heating Maximum Air Flow Fraction
  ,                                       !- Design Zone Air Distribution Effectiveness in Cooling Mode
  ,                                       !- Design Zone Air Distribution Effectiveness in Heating Mode
  No,                                     !- Account for Dedicated Outdoor Air System
  NeutralSupplyAir,                       !- Dedicated Outdoor Air System Control Strategy
  autosize,                               !- Dedicated Outdoor Air Low Setpoint Temperature for Design {C}
  autosize;                               !- Dedicated Outdoor Air High Setpoint Temperature for Design {C}

OS:ZoneHVAC:EquipmentList,
  {1c0735c7-4785-4fa0-8421-81d59a93cd06}, !- Handle
  Zone HVAC Equipment List 1,             !- Name
  {f07e0ab6-e393-41c4-ba89-aa38576961e9}; !- Thermal Zone

OS:ThermalZone,
  {8c1f780e-7bfc-4a99-b333-380e1a7db463}, !- Handle
  garage zone,                            !- Name
  ,                                       !- Multiplier
  ,                                       !- Ceiling Height {m}
  ,                                       !- Volume {m3}
  ,                                       !- Floor Area {m2}
  ,                                       !- Zone Inside Convection Algorithm
  ,                                       !- Zone Outside Convection Algorithm
  ,                                       !- Zone Conditioning Equipment List Name
  {a397dbdd-dada-4540-b028-c53473f0f1a6}, !- Zone Air Inlet Port List
  {7c5b6d35-2fb0-4d79-9aa8-a02f47fa191c}, !- Zone Air Exhaust Port List
  {c84a6874-04c5-412f-96ff-281c909e7c0d}, !- Zone Air Node Name
  {502c0461-37ba-4c6b-bc66-7eb2ed45ef81}, !- Zone Return Air Port List
  ,                                       !- Primary Daylighting Control Name
  ,                                       !- Fraction of Zone Controlled by Primary Daylighting Control
  ,                                       !- Secondary Daylighting Control Name
  ,                                       !- Fraction of Zone Controlled by Secondary Daylighting Control
  ,                                       !- Illuminance Map Name
  ,                                       !- Group Rendering Name
  ,                                       !- Thermostat Name
  No;                                     !- Use Ideal Air Loads

OS:Node,
  {6cb3ac7a-0666-40ea-9a8b-509991463145}, !- Handle
  Node 2,                                 !- Name
  {c84a6874-04c5-412f-96ff-281c909e7c0d}, !- Inlet Port
  ;                                       !- Outlet Port

OS:Connection,
  {c84a6874-04c5-412f-96ff-281c909e7c0d}, !- Handle
  {f70b5934-68a3-4637-8392-92c9ef2f6586}, !- Name
  {8c1f780e-7bfc-4a99-b333-380e1a7db463}, !- Source Object
  11,                                     !- Outlet Port
  {6cb3ac7a-0666-40ea-9a8b-509991463145}, !- Target Object
  2;                                      !- Inlet Port

OS:PortList,
  {a397dbdd-dada-4540-b028-c53473f0f1a6}, !- Handle
  {8b19094e-62d1-4dde-872a-0a3b737d96b9}, !- Name
  {8c1f780e-7bfc-4a99-b333-380e1a7db463}; !- HVAC Component

OS:PortList,
  {7c5b6d35-2fb0-4d79-9aa8-a02f47fa191c}, !- Handle
  {58d54050-1a48-4707-a1fe-37ef1d67d19a}, !- Name
  {8c1f780e-7bfc-4a99-b333-380e1a7db463}; !- HVAC Component

OS:PortList,
  {502c0461-37ba-4c6b-bc66-7eb2ed45ef81}, !- Handle
  {1fb52c0e-ae7f-490a-a4ab-c2445c8786e2}, !- Name
  {8c1f780e-7bfc-4a99-b333-380e1a7db463}; !- HVAC Component

OS:Sizing:Zone,
  {79ad5880-309a-4172-9d44-c1e854ca02a5}, !- Handle
  {8c1f780e-7bfc-4a99-b333-380e1a7db463}, !- Zone or ZoneList Name
  SupplyAirTemperature,                   !- Zone Cooling Design Supply Air Temperature Input Method
  14,                                     !- Zone Cooling Design Supply Air Temperature {C}
  11.11,                                  !- Zone Cooling Design Supply Air Temperature Difference {deltaC}
  SupplyAirTemperature,                   !- Zone Heating Design Supply Air Temperature Input Method
  40,                                     !- Zone Heating Design Supply Air Temperature {C}
  11.11,                                  !- Zone Heating Design Supply Air Temperature Difference {deltaC}
  0.0085,                                 !- Zone Cooling Design Supply Air Humidity Ratio {kg-H2O/kg-air}
  0.008,                                  !- Zone Heating Design Supply Air Humidity Ratio {kg-H2O/kg-air}
  ,                                       !- Zone Heating Sizing Factor
  ,                                       !- Zone Cooling Sizing Factor
  DesignDay,                              !- Cooling Design Air Flow Method
  ,                                       !- Cooling Design Air Flow Rate {m3/s}
  ,                                       !- Cooling Minimum Air Flow per Zone Floor Area {m3/s-m2}
  ,                                       !- Cooling Minimum Air Flow {m3/s}
  ,                                       !- Cooling Minimum Air Flow Fraction
  DesignDay,                              !- Heating Design Air Flow Method
  ,                                       !- Heating Design Air Flow Rate {m3/s}
  ,                                       !- Heating Maximum Air Flow per Zone Floor Area {m3/s-m2}
  ,                                       !- Heating Maximum Air Flow {m3/s}
  ,                                       !- Heating Maximum Air Flow Fraction
  ,                                       !- Design Zone Air Distribution Effectiveness in Cooling Mode
  ,                                       !- Design Zone Air Distribution Effectiveness in Heating Mode
  No,                                     !- Account for Dedicated Outdoor Air System
  NeutralSupplyAir,                       !- Dedicated Outdoor Air System Control Strategy
  autosize,                               !- Dedicated Outdoor Air Low Setpoint Temperature for Design {C}
  autosize;                               !- Dedicated Outdoor Air High Setpoint Temperature for Design {C}

OS:ZoneHVAC:EquipmentList,
  {16aa5004-237c-43ab-9ebd-d3e36a754664}, !- Handle
  Zone HVAC Equipment List 2,             !- Name
  {8c1f780e-7bfc-4a99-b333-380e1a7db463}; !- Thermal Zone

OS:Space,
  {80ecb01c-1465-4195-bbaa-bbbd784911be}, !- Handle
  garage space,                           !- Name
  {7d6389e1-63e1-4687-a0b3-ecec52f3a027}, !- Space Type Name
  ,                                       !- Default Construction Set Name
  ,                                       !- Default Schedule Set Name
  -0,                                     !- Direction of Relative North {deg}
  0,                                      !- X Origin {m}
  0,                                      !- Y Origin {m}
  0,                                      !- Z Origin {m}
  ,                                       !- Building Story Name
  {8c1f780e-7bfc-4a99-b333-380e1a7db463}; !- Thermal Zone Name

OS:Surface,
  {a3c77c0d-eb17-4756-ba7d-7569891ff971}, !- Handle
  Surface 1,                              !- Name
  Floor,                                  !- Surface Type
  ,                                       !- Construction Name
  {80ecb01c-1465-4195-bbaa-bbbd784911be}, !- Space Name
  Foundation,                             !- Outside Boundary Condition
  ,                                       !- Outside Boundary Condition Object
  NoSun,                                  !- Sun Exposure
  NoWind,                                 !- Wind Exposure
  ,                                       !- View Factor to Ground
  ,                                       !- Number of Vertices
  5.57695129776527, -3.048, 0,            !- X,Y,Z Vertex 1 {m}
  5.57695129776527, 3.048, 0,             !- X,Y,Z Vertex 2 {m}
  11.6729512977653, 3.048, 0,             !- X,Y,Z Vertex 3 {m}
  11.6729512977653, -3.048, 0;            !- X,Y,Z Vertex 4 {m}

OS:Surface,
  {31f1b4e7-d8d8-4feb-aabc-e0df37943e0e}, !- Handle
  Surface 2,                              !- Name
  Wall,                                   !- Surface Type
  ,                                       !- Construction Name
  {80ecb01c-1465-4195-bbaa-bbbd784911be}, !- Space Name
  Surface,                                !- Outside Boundary Condition
  {0149385a-93b1-48b3-8c30-51b801d36bc4}, !- Outside Boundary Condition Object
  NoSun,                                  !- Sun Exposure
  NoWind,                                 !- Wind Exposure
  ,                                       !- View Factor to Ground
  ,                                       !- Number of Vertices
  5.57695129776527, 3.048, 2.4384,        !- X,Y,Z Vertex 1 {m}
  5.57695129776527, 3.048, 0,             !- X,Y,Z Vertex 2 {m}
  5.57695129776527, 0, 0,                 !- X,Y,Z Vertex 3 {m}
  5.57695129776527, 0, 2.4384;            !- X,Y,Z Vertex 4 {m}

OS:Surface,
  {f010faa9-2404-4101-a170-dc2b5b43e577}, !- Handle
  Surface 3,                              !- Name
  Wall,                                   !- Surface Type
  ,                                       !- Construction Name
  {80ecb01c-1465-4195-bbaa-bbbd784911be}, !- Space Name
  Surface,                                !- Outside Boundary Condition
  {7dc653cc-7b4e-40c0-828a-9b08f862ab94}, !- Outside Boundary Condition Object
  NoSun,                                  !- Sun Exposure
  NoWind,                                 !- Wind Exposure
  ,                                       !- View Factor to Ground
  ,                                       !- Number of Vertices
  11.6729512977653, 3.048, 2.4384,        !- X,Y,Z Vertex 1 {m}
  11.6729512977653, 3.048, 0,             !- X,Y,Z Vertex 2 {m}
  5.57695129776527, 3.048, 0,             !- X,Y,Z Vertex 3 {m}
  5.57695129776527, 3.048, 2.4384;        !- X,Y,Z Vertex 4 {m}

OS:Surface,
  {01dcfda3-c85d-4b41-94c8-b53a79dd3b70}, !- Handle
  Surface 4,                              !- Name
  Wall,                                   !- Surface Type
  ,                                       !- Construction Name
  {80ecb01c-1465-4195-bbaa-bbbd784911be}, !- Space Name
  Outdoors,                               !- Outside Boundary Condition
  ,                                       !- Outside Boundary Condition Object
  SunExposed,                             !- Sun Exposure
  WindExposed,                            !- Wind Exposure
  ,                                       !- View Factor to Ground
  ,                                       !- Number of Vertices
  11.6729512977653, -3.048, 2.4384,       !- X,Y,Z Vertex 1 {m}
  11.6729512977653, -3.048, 0,            !- X,Y,Z Vertex 2 {m}
  11.6729512977653, 3.048, 0,             !- X,Y,Z Vertex 3 {m}
  11.6729512977653, 3.048, 2.4384;        !- X,Y,Z Vertex 4 {m}

OS:Surface,
  {3f83e35f-69ef-4e1d-9808-5fcd22295b84}, !- Handle
  Surface 5,                              !- Name
  Wall,                                   !- Surface Type
  ,                                       !- Construction Name
  {80ecb01c-1465-4195-bbaa-bbbd784911be}, !- Space Name
  Outdoors,                               !- Outside Boundary Condition
  ,                                       !- Outside Boundary Condition Object
  SunExposed,                             !- Sun Exposure
  WindExposed,                            !- Wind Exposure
  ,                                       !- View Factor to Ground
  ,                                       !- Number of Vertices
  5.57695129776527, -3.048, 2.4384,       !- X,Y,Z Vertex 1 {m}
  5.57695129776527, -3.048, 0,            !- X,Y,Z Vertex 2 {m}
  11.6729512977653, -3.048, 0,            !- X,Y,Z Vertex 3 {m}
  11.6729512977653, -3.048, 2.4384;       !- X,Y,Z Vertex 4 {m}

OS:Surface,
  {6b850b97-b254-49ae-9db6-b50198fe2a18}, !- Handle
  Surface 6,                              !- Name
  RoofCeiling,                            !- Surface Type
  ,                                       !- Construction Name
  {80ecb01c-1465-4195-bbaa-bbbd784911be}, !- Space Name
  Surface,                                !- Outside Boundary Condition
  {66a8cfd3-44fb-44f2-841c-7e7e13c992e1}, !- Outside Boundary Condition Object
  NoSun,                                  !- Sun Exposure
  NoWind,                                 !- Wind Exposure
  ,                                       !- View Factor to Ground
  ,                                       !- Number of Vertices
  11.6729512977653, -3.048, 2.4384,       !- X,Y,Z Vertex 1 {m}
  11.6729512977653, 3.048, 2.4384,        !- X,Y,Z Vertex 2 {m}
  5.57695129776527, 3.048, 2.4384,        !- X,Y,Z Vertex 3 {m}
  5.57695129776527, -3.048, 2.4384;       !- X,Y,Z Vertex 4 {m}

OS:SpaceType,
  {7d6389e1-63e1-4687-a0b3-ecec52f3a027}, !- Handle
  Space Type 1,                           !- Name
  ,                                       !- Default Construction Set Name
  ,                                       !- Default Schedule Set Name
  ,                                       !- Group Rendering Name
  ,                                       !- Design Specification Outdoor Air Object Name
  ,                                       !- Standards Template
  ,                                       !- Standards Building Type
  garage;                                 !- Standards Space Type

OS:Space,
  {9085749d-fbde-41b2-a078-e15e97d9630d}, !- Handle
  living space,                           !- Name
  {992cbbba-e249-41b7-b40d-435bc63c8d1a}, !- Space Type Name
  ,                                       !- Default Construction Set Name
  ,                                       !- Default Schedule Set Name
  -0,                                     !- Direction of Relative North {deg}
  0,                                      !- X Origin {m}
  0,                                      !- Y Origin {m}
  0,                                      !- Z Origin {m}
  ,                                       !- Building Story Name
  {f07e0ab6-e393-41c4-ba89-aa38576961e9}, !- Thermal Zone Name
  ,                                       !- Part of Total Floor Area
  ,                                       !- Design Specification Outdoor Air Object Name
  {6fb37d69-8efe-414b-aa3f-b6ea23788605}; !- Building Unit Name

OS:Surface,
  {b429a8a9-296c-4d78-896f-a86bc1ac65ae}, !- Handle
  Surface 7,                              !- Name
  Floor,                                  !- Surface Type
  ,                                       !- Construction Name
  {9085749d-fbde-41b2-a078-e15e97d9630d}, !- Space Name
  Surface,                                !- Outside Boundary Condition
  {16d2f7c1-2f57-49e7-a016-d74de1a1df5d}, !- Outside Boundary Condition Object
  NoSun,                                  !- Sun Exposure
  NoWind,                                 !- Wind Exposure
  ,                                       !- View Factor to Ground
  ,                                       !- Number of Vertices
  0, 0, 0,                                !- X,Y,Z Vertex 1 {m}
  0, 5.83647564888264, 0,                 !- X,Y,Z Vertex 2 {m}
  11.6729512977653, 5.83647564888264, 0,  !- X,Y,Z Vertex 3 {m}
  11.6729512977653, 3.048, 0,             !- X,Y,Z Vertex 4 {m}
  5.57695129776527, 3.048, 0,             !- X,Y,Z Vertex 5 {m}
  5.57695129776527, 0, 0;                 !- X,Y,Z Vertex 6 {m}

OS:Surface,
  {e3a418ef-f553-4f13-acb7-0c43f88e2117}, !- Handle
  Surface 8,                              !- Name
  Wall,                                   !- Surface Type
  ,                                       !- Construction Name
  {9085749d-fbde-41b2-a078-e15e97d9630d}, !- Space Name
  Outdoors,                               !- Outside Boundary Condition
  ,                                       !- Outside Boundary Condition Object
  SunExposed,                             !- Sun Exposure
  WindExposed,                            !- Wind Exposure
  ,                                       !- View Factor to Ground
  ,                                       !- Number of Vertices
  0, 5.83647564888264, 2.4384,            !- X,Y,Z Vertex 1 {m}
  0, 5.83647564888264, 0,                 !- X,Y,Z Vertex 2 {m}
  0, 0, 0,                                !- X,Y,Z Vertex 3 {m}
  0, 0, 2.4384;                           !- X,Y,Z Vertex 4 {m}

OS:Surface,
  {4b22b659-6cae-4d5b-bbd9-7289bb935d6e}, !- Handle
  Surface 9,                              !- Name
  Wall,                                   !- Surface Type
  ,                                       !- Construction Name
  {9085749d-fbde-41b2-a078-e15e97d9630d}, !- Space Name
  Outdoors,                               !- Outside Boundary Condition
  ,                                       !- Outside Boundary Condition Object
  SunExposed,                             !- Sun Exposure
  WindExposed,                            !- Wind Exposure
  ,                                       !- View Factor to Ground
  ,                                       !- Number of Vertices
  11.6729512977653, 5.83647564888264, 2.4384, !- X,Y,Z Vertex 1 {m}
  11.6729512977653, 5.83647564888264, 0,  !- X,Y,Z Vertex 2 {m}
  0, 5.83647564888264, 0,                 !- X,Y,Z Vertex 3 {m}
  0, 5.83647564888264, 2.4384;            !- X,Y,Z Vertex 4 {m}

OS:Surface,
  {7e8eaff7-fe59-40e9-bdad-86de628dea86}, !- Handle
  Surface 10,                             !- Name
  Wall,                                   !- Surface Type
  ,                                       !- Construction Name
  {9085749d-fbde-41b2-a078-e15e97d9630d}, !- Space Name
  Outdoors,                               !- Outside Boundary Condition
  ,                                       !- Outside Boundary Condition Object
  SunExposed,                             !- Sun Exposure
  WindExposed,                            !- Wind Exposure
  ,                                       !- View Factor to Ground
  ,                                       !- Number of Vertices
  11.6729512977653, 3.048, 2.4384,        !- X,Y,Z Vertex 1 {m}
  11.6729512977653, 3.048, 0,             !- X,Y,Z Vertex 2 {m}
  11.6729512977653, 5.83647564888264, 0,  !- X,Y,Z Vertex 3 {m}
  11.6729512977653, 5.83647564888264, 2.4384; !- X,Y,Z Vertex 4 {m}

OS:Surface,
  {7dc653cc-7b4e-40c0-828a-9b08f862ab94}, !- Handle
  Surface 11,                             !- Name
  Wall,                                   !- Surface Type
  ,                                       !- Construction Name
  {9085749d-fbde-41b2-a078-e15e97d9630d}, !- Space Name
  Surface,                                !- Outside Boundary Condition
  {f010faa9-2404-4101-a170-dc2b5b43e577}, !- Outside Boundary Condition Object
  NoSun,                                  !- Sun Exposure
  NoWind,                                 !- Wind Exposure
  ,                                       !- View Factor to Ground
  ,                                       !- Number of Vertices
  5.57695129776527, 3.048, 2.4384,        !- X,Y,Z Vertex 1 {m}
  5.57695129776527, 3.048, 0,             !- X,Y,Z Vertex 2 {m}
  11.6729512977653, 3.048, 0,             !- X,Y,Z Vertex 3 {m}
  11.6729512977653, 3.048, 2.4384;        !- X,Y,Z Vertex 4 {m}

OS:Surface,
  {0149385a-93b1-48b3-8c30-51b801d36bc4}, !- Handle
  Surface 12,                             !- Name
  Wall,                                   !- Surface Type
  ,                                       !- Construction Name
  {9085749d-fbde-41b2-a078-e15e97d9630d}, !- Space Name
  Surface,                                !- Outside Boundary Condition
  {31f1b4e7-d8d8-4feb-aabc-e0df37943e0e}, !- Outside Boundary Condition Object
  NoSun,                                  !- Sun Exposure
  NoWind,                                 !- Wind Exposure
  ,                                       !- View Factor to Ground
  ,                                       !- Number of Vertices
  5.57695129776527, 0, 2.4384,            !- X,Y,Z Vertex 1 {m}
  5.57695129776527, 0, 0,                 !- X,Y,Z Vertex 2 {m}
  5.57695129776527, 3.048, 0,             !- X,Y,Z Vertex 3 {m}
  5.57695129776527, 3.048, 2.4384;        !- X,Y,Z Vertex 4 {m}

OS:Surface,
  {9678911c-6d07-41e7-9396-0bac29c24291}, !- Handle
  Surface 13,                             !- Name
  Wall,                                   !- Surface Type
  ,                                       !- Construction Name
  {9085749d-fbde-41b2-a078-e15e97d9630d}, !- Space Name
  Outdoors,                               !- Outside Boundary Condition
  ,                                       !- Outside Boundary Condition Object
  SunExposed,                             !- Sun Exposure
  WindExposed,                            !- Wind Exposure
  ,                                       !- View Factor to Ground
  ,                                       !- Number of Vertices
  0, 0, 2.4384,                           !- X,Y,Z Vertex 1 {m}
  0, 0, 0,                                !- X,Y,Z Vertex 2 {m}
  5.57695129776527, 0, 0,                 !- X,Y,Z Vertex 3 {m}
  5.57695129776527, 0, 2.4384;            !- X,Y,Z Vertex 4 {m}

OS:Surface,
  {6f88c538-fd93-461a-913a-fcb8ad2034e8}, !- Handle
  Surface 14,                             !- Name
  RoofCeiling,                            !- Surface Type
  ,                                       !- Construction Name
  {9085749d-fbde-41b2-a078-e15e97d9630d}, !- Space Name
  Surface,                                !- Outside Boundary Condition
  {c9e8f45f-afaa-495d-bc1a-9242d66f80e4}, !- Outside Boundary Condition Object
  NoSun,                                  !- Sun Exposure
  NoWind,                                 !- Wind Exposure
  ,                                       !- View Factor to Ground
  ,                                       !- Number of Vertices
  5.57695129776527, 0, 2.4384,            !- X,Y,Z Vertex 1 {m}
  5.57695129776527, 3.048, 2.4384,        !- X,Y,Z Vertex 2 {m}
  11.6729512977653, 3.048, 2.4384,        !- X,Y,Z Vertex 3 {m}
  11.6729512977653, 5.83647564888264, 2.4384, !- X,Y,Z Vertex 4 {m}
  0, 5.83647564888264, 2.4384,            !- X,Y,Z Vertex 5 {m}
  0, 0, 2.4384;                           !- X,Y,Z Vertex 6 {m}

OS:SpaceType,
  {992cbbba-e249-41b7-b40d-435bc63c8d1a}, !- Handle
  Space Type 2,                           !- Name
  ,                                       !- Default Construction Set Name
  ,                                       !- Default Schedule Set Name
  ,                                       !- Group Rendering Name
  ,                                       !- Design Specification Outdoor Air Object Name
  ,                                       !- Standards Template
  ,                                       !- Standards Building Type
  living;                                 !- Standards Space Type

OS:Space,
  {2ed116dc-1128-4ee2-87ec-06f6a1095e66}, !- Handle
  living space|story 2,                   !- Name
  {992cbbba-e249-41b7-b40d-435bc63c8d1a}, !- Space Type Name
  ,                                       !- Default Construction Set Name