!- NOTE: Auto-generated from /test/osw_files/SFD_2000sqft_2story_FB_UA_Denver_CentralAC.osw

OS:Version,
  {519949ba-f419-4de6-9032-339fe593d3ec}, !- Handle
  2.9.0;                                  !- Version Identifier

OS:SimulationControl,
  {79df0093-f069-426e-abc6-8a6d4cba38f6}, !- Handle
  ,                                       !- Do Zone Sizing Calculation
  ,                                       !- Do System Sizing Calculation
  ,                                       !- Do Plant Sizing Calculation
  No;                                     !- Run Simulation for Sizing Periods

OS:Timestep,
  {3367f696-fd4d-4fc9-bd36-bb40f9dbce72}, !- Handle
  6;                                      !- Number of Timesteps per Hour

OS:ShadowCalculation,
  {1d5c1c46-bac7-4c21-8e29-8537a8928e82}, !- Handle
  20,                                     !- Calculation Frequency
  200;                                    !- Maximum Figures in Shadow Overlap Calculations

OS:SurfaceConvectionAlgorithm:Outside,
  {9333d5f2-b4e3-4da5-bccb-8ab3a2de9b8c}, !- Handle
  DOE-2;                                  !- Algorithm

OS:SurfaceConvectionAlgorithm:Inside,
  {f2dab957-d77e-4b8e-940b-302469467207}, !- Handle
  TARP;                                   !- Algorithm

OS:ZoneCapacitanceMultiplier:ResearchSpecial,
  {6ab12f6e-3066-4380-9910-fb1b5aa93ed5}, !- Handle
  ,                                       !- Temperature Capacity Multiplier
  15,                                     !- Humidity Capacity Multiplier
  ;                                       !- Carbon Dioxide Capacity Multiplier

OS:RunPeriod,
  {c4622cca-dda1-4373-9ea7-7dc17d7efcbd}, !- Handle
  Run Period 1,                           !- Name
  1,                                      !- Begin Month
  1,                                      !- Begin Day of Month
  12,                                     !- End Month
  31,                                     !- End Day of Month
  ,                                       !- Use Weather File Holidays and Special Days
  ,                                       !- Use Weather File Daylight Saving Period
  ,                                       !- Apply Weekend Holiday Rule
  ,                                       !- Use Weather File Rain Indicators
  ,                                       !- Use Weather File Snow Indicators
  ;                                       !- Number of Times Runperiod to be Repeated

OS:YearDescription,
  {b296ff7b-12e4-46bc-90c9-25cb4df520d6}, !- Handle
  2007,                                   !- Calendar Year
  ,                                       !- Day of Week for Start Day
  ;                                       !- Is Leap Year

OS:ThermalZone,
  {c8e9ab9b-5fda-4333-a94c-47e9fe4c78f3}, !- Handle
  living zone,                            !- Name
  ,                                       !- Multiplier
  ,                                       !- Ceiling Height {m}
  ,                                       !- Volume {m3}
  ,                                       !- Floor Area {m2}
  ,                                       !- Zone Inside Convection Algorithm
  ,                                       !- Zone Outside Convection Algorithm
  ,                                       !- Zone Conditioning Equipment List Name
  {ffc9a304-97d6-42cc-b838-93bc738dacbe}, !- Zone Air Inlet Port List
  {c7234bd8-3ea8-4caa-acbc-d46bf8a019ae}, !- Zone Air Exhaust Port List
  {c6444d80-0561-4933-a25c-44aff5b72d57}, !- Zone Air Node Name
  {e386cc02-415d-4ea1-9ad7-1a1d21b198b0}, !- Zone Return Air Port List
  ,                                       !- Primary Daylighting Control Name
  ,                                       !- Fraction of Zone Controlled by Primary Daylighting Control
  ,                                       !- Secondary Daylighting Control Name
  ,                                       !- Fraction of Zone Controlled by Secondary Daylighting Control
  ,                                       !- Illuminance Map Name
  ,                                       !- Group Rendering Name
  {0987dd03-f3ec-48f8-a550-025e1d673236}, !- Thermostat Name
  No;                                     !- Use Ideal Air Loads

OS:Node,
  {79b498a2-fcdc-4495-9707-df1dda1363c2}, !- Handle
  Node 1,                                 !- Name
  {c6444d80-0561-4933-a25c-44aff5b72d57}, !- Inlet Port
  ;                                       !- Outlet Port

OS:Connection,
  {c6444d80-0561-4933-a25c-44aff5b72d57}, !- Handle
  {61ff7fd2-4b31-4019-b321-87c77f44e968}, !- Name
  {c8e9ab9b-5fda-4333-a94c-47e9fe4c78f3}, !- Source Object
  11,                                     !- Outlet Port
  {79b498a2-fcdc-4495-9707-df1dda1363c2}, !- Target Object
  2;                                      !- Inlet Port

OS:PortList,
  {ffc9a304-97d6-42cc-b838-93bc738dacbe}, !- Handle
  {c8b9044f-a8a0-4e5d-9ada-ca9c32d4266f}, !- Name
  {c8e9ab9b-5fda-4333-a94c-47e9fe4c78f3}, !- HVAC Component
  {f731cad7-8351-4a20-8c10-be8ef20e635f}; !- Port 1

OS:PortList,
  {c7234bd8-3ea8-4caa-acbc-d46bf8a019ae}, !- Handle
  {bdea898c-5992-4023-aa32-d2a5aa9aa5bb}, !- Name
  {c8e9ab9b-5fda-4333-a94c-47e9fe4c78f3}; !- HVAC Component

OS:PortList,
  {e386cc02-415d-4ea1-9ad7-1a1d21b198b0}, !- Handle
  {edbc1038-599b-4aaf-a6a5-caacee74bf9d}, !- Name
  {c8e9ab9b-5fda-4333-a94c-47e9fe4c78f3}, !- HVAC Component
  {c7c66f5a-4faa-4b08-8dfc-0d56b3fc3d85}; !- Port 1

OS:Sizing:Zone,
  {df2b68f3-92cf-4261-bb71-6c846b656a7e}, !- Handle
  {c8e9ab9b-5fda-4333-a94c-47e9fe4c78f3}, !- Zone or ZoneList Name
  SupplyAirTemperature,                   !- Zone Cooling Design Supply Air Temperature Input Method
  14,                                     !- Zone Cooling Design Supply Air Temperature {C}
  11.11,                                  !- Zone Cooling Design Supply Air Temperature Difference {deltaC}
  SupplyAirTemperature,                   !- Zone Heating Design Supply Air Temperature Input Method
  40,                                     !- Zone Heating Design Supply Air Temperature {C}
  11.11,                                  !- Zone Heating Design Supply Air Temperature Difference {deltaC}
  0.0085,                                 !- Zone Cooling Design Supply Air Humidity Ratio {kg-H2O/kg-air}
  0.008,                                  !- Zone Heating Design Supply Air Humidity Ratio {kg-H2O/kg-air}
  ,                                       !- Zone Heating Sizing Factor
  ,                                       !- Zone Cooling Sizing Factor
  DesignDay,                              !- Cooling Design Air Flow Method
  ,                                       !- Cooling Design Air Flow Rate {m3/s}
  ,                                       !- Cooling Minimum Air Flow per Zone Floor Area {m3/s-m2}
  ,                                       !- Cooling Minimum Air Flow {m3/s}
  ,                                       !- Cooling Minimum Air Flow Fraction
  DesignDay,                              !- Heating Design Air Flow Method
  ,                                       !- Heating Design Air Flow Rate {m3/s}
  ,                                       !- Heating Maximum Air Flow per Zone Floor Area {m3/s-m2}
  ,                                       !- Heating Maximum Air Flow {m3/s}
  ,                                       !- Heating Maximum Air Flow Fraction
  ,                                       !- Design Zone Air Distribution Effectiveness in Cooling Mode
  ,                                       !- Design Zone Air Distribution Effectiveness in Heating Mode
  No,                                     !- Account for Dedicated Outdoor Air System
  NeutralSupplyAir,                       !- Dedicated Outdoor Air System Control Strategy
  autosize,                               !- Dedicated Outdoor Air Low Setpoint Temperature for Design {C}
  autosize;                               !- Dedicated Outdoor Air High Setpoint Temperature for Design {C}

OS:ZoneHVAC:EquipmentList,
  {a592984b-eef8-4efa-847d-9146090693e7}, !- Handle
  Zone HVAC Equipment List 1,             !- Name
  {c8e9ab9b-5fda-4333-a94c-47e9fe4c78f3}, !- Thermal Zone
  SequentialLoad,                         !- Load Distribution Scheme
  {2afd28ee-3944-4a64-8cd3-3bf3a7f93368}, !- Zone Equipment 1
  1,                                      !- Zone Equipment Cooling Sequence 1
  1,                                      !- Zone Equipment Heating or No-Load Sequence 1
  ,                                       !- Zone Equipment Sequential Cooling Fraction Schedule Name 1
  ;                                       !- Zone Equipment Sequential Heating Fraction Schedule Name 1

OS:ThermalZone,
  {5dc8eed5-69ac-421d-917f-713f942abe55}, !- Handle
  garage zone,                            !- Name
  ,                                       !- Multiplier
  ,                                       !- Ceiling Height {m}
  ,                                       !- Volume {m3}
  ,                                       !- Floor Area {m2}
  ,                                       !- Zone Inside Convection Algorithm
  ,                                       !- Zone Outside Convection Algorithm
  ,                                       !- Zone Conditioning Equipment List Name
  {d11811fd-cc90-4e5a-b95d-fbd08a359d9f}, !- Zone Air Inlet Port List
  {f32107e5-c333-4fb1-af0c-0d4ca6659214}, !- Zone Air Exhaust Port List
  {96b49da2-7cc9-48e4-91dc-5c1b264cacef}, !- Zone Air Node Name
  {edc28724-8229-48a0-b9a9-abacf10ea3d8}, !- Zone Return Air Port List
  ,                                       !- Primary Daylighting Control Name
  ,                                       !- Fraction of Zone Controlled by Primary Daylighting Control
  ,                                       !- Secondary Daylighting Control Name
  ,                                       !- Fraction of Zone Controlled by Secondary Daylighting Control
  ,                                       !- Illuminance Map Name
  ,                                       !- Group Rendering Name
  ,                                       !- Thermostat Name
  No;                                     !- Use Ideal Air Loads

OS:Node,
  {82dfde65-4030-4f49-bcba-44e68863b521}, !- Handle
  Node 2,                                 !- Name
  {96b49da2-7cc9-48e4-91dc-5c1b264cacef}, !- Inlet Port
  ;                                       !- Outlet Port

OS:Connection,
  {96b49da2-7cc9-48e4-91dc-5c1b264cacef}, !- Handle
  {999d6ed9-7d08-4dcb-aaf7-2e319e79ba06}, !- Name
  {5dc8eed5-69ac-421d-917f-713f942abe55}, !- Source Object
  11,                                     !- Outlet Port
  {82dfde65-4030-4f49-bcba-44e68863b521}, !- Target Object
  2;                                      !- Inlet Port

OS:PortList,
  {d11811fd-cc90-4e5a-b95d-fbd08a359d9f}, !- Handle
  {22e2c532-6d72-44db-b0a6-bfa3ffb686d4}, !- Name
  {5dc8eed5-69ac-421d-917f-713f942abe55}; !- HVAC Component

OS:PortList,
  {f32107e5-c333-4fb1-af0c-0d4ca6659214}, !- Handle
  {83f2e0b3-0875-4162-9b3a-9f5122f4df12}, !- Name
  {5dc8eed5-69ac-421d-917f-713f942abe55}; !- HVAC Component

OS:PortList,
  {edc28724-8229-48a0-b9a9-abacf10ea3d8}, !- Handle
  {2480995d-d632-46de-a0da-d4114b7177cf}, !- Name
  {5dc8eed5-69ac-421d-917f-713f942abe55}; !- HVAC Component

OS:Sizing:Zone,
  {0d6b9670-745a-446b-b1bb-4f4747ef9ade}, !- Handle
  {5dc8eed5-69ac-421d-917f-713f942abe55}, !- Zone or ZoneList Name
  SupplyAirTemperature,                   !- Zone Cooling Design Supply Air Temperature Input Method
  14,                                     !- Zone Cooling Design Supply Air Temperature {C}
  11.11,                                  !- Zone Cooling Design Supply Air Temperature Difference {deltaC}
  SupplyAirTemperature,                   !- Zone Heating Design Supply Air Temperature Input Method
  40,                                     !- Zone Heating Design Supply Air Temperature {C}
  11.11,                                  !- Zone Heating Design Supply Air Temperature Difference {deltaC}
  0.0085,                                 !- Zone Cooling Design Supply Air Humidity Ratio {kg-H2O/kg-air}
  0.008,                                  !- Zone Heating Design Supply Air Humidity Ratio {kg-H2O/kg-air}
  ,                                       !- Zone Heating Sizing Factor
  ,                                       !- Zone Cooling Sizing Factor
  DesignDay,                              !- Cooling Design Air Flow Method
  ,                                       !- Cooling Design Air Flow Rate {m3/s}
  ,                                       !- Cooling Minimum Air Flow per Zone Floor Area {m3/s-m2}
  ,                                       !- Cooling Minimum Air Flow {m3/s}
  ,                                       !- Cooling Minimum Air Flow Fraction
  DesignDay,                              !- Heating Design Air Flow Method
  ,                                       !- Heating Design Air Flow Rate {m3/s}
  ,                                       !- Heating Maximum Air Flow per Zone Floor Area {m3/s-m2}
  ,                                       !- Heating Maximum Air Flow {m3/s}
  ,                                       !- Heating Maximum Air Flow Fraction
  ,                                       !- Design Zone Air Distribution Effectiveness in Cooling Mode
  ,                                       !- Design Zone Air Distribution Effectiveness in Heating Mode
  No,                                     !- Account for Dedicated Outdoor Air System
  NeutralSupplyAir,                       !- Dedicated Outdoor Air System Control Strategy
  autosize,                               !- Dedicated Outdoor Air Low Setpoint Temperature for Design {C}
  autosize;                               !- Dedicated Outdoor Air High Setpoint Temperature for Design {C}

OS:ZoneHVAC:EquipmentList,
  {b48ec40e-54a0-44a0-b2d2-4669626bea93}, !- Handle
  Zone HVAC Equipment List 2,             !- Name
  {5dc8eed5-69ac-421d-917f-713f942abe55}; !- Thermal Zone

OS:Space,
  {22ae42a3-de81-4c55-965b-a3ac0d2ea3ce}, !- Handle
  garage space,                           !- Name
  {f64338ed-b230-48d6-81d2-e1edc48bfcae}, !- Space Type Name
  ,                                       !- Default Construction Set Name
  ,                                       !- Default Schedule Set Name
  -0,                                     !- Direction of Relative North {deg}
  0,                                      !- X Origin {m}
  0,                                      !- Y Origin {m}
  0,                                      !- Z Origin {m}
  ,                                       !- Building Story Name
  {5dc8eed5-69ac-421d-917f-713f942abe55}; !- Thermal Zone Name

OS:Surface,
  {5ac477b5-e94a-4c5b-9125-b5687a85c514}, !- Handle
  Surface 1,                              !- Name
  Floor,                                  !- Surface Type
  ,                                       !- Construction Name
  {22ae42a3-de81-4c55-965b-a3ac0d2ea3ce}, !- Space Name
  Foundation,                             !- Outside Boundary Condition
  ,                                       !- Outside Boundary Condition Object
  NoSun,                                  !- Sun Exposure
  NoWind,                                 !- Wind Exposure
  ,                                       !- View Factor to Ground
  ,                                       !- Number of Vertices
  5.57695129776527, -3.048, 0,            !- X,Y,Z Vertex 1 {m}
  5.57695129776527, 3.048, 0,             !- X,Y,Z Vertex 2 {m}
  11.6729512977653, 3.048, 0,             !- X,Y,Z Vertex 3 {m}
  11.6729512977653, -3.048, 0;            !- X,Y,Z Vertex 4 {m}

OS:Surface,
  {47029727-bdf7-4cf4-8623-81dc25d00d5c}, !- Handle
  Surface 2,                              !- Name
  Wall,                                   !- Surface Type
  ,                                       !- Construction Name
  {22ae42a3-de81-4c55-965b-a3ac0d2ea3ce}, !- Space Name
  Surface,                                !- Outside Boundary Condition
  {938b3886-a30d-4688-9ce1-f419df9d198b}, !- Outside Boundary Condition Object
  NoSun,                                  !- Sun Exposure
  NoWind,                                 !- Wind Exposure
  ,                                       !- View Factor to Ground
  ,                                       !- Number of Vertices
  5.57695129776527, 3.048, 2.4384,        !- X,Y,Z Vertex 1 {m}
  5.57695129776527, 3.048, 0,             !- X,Y,Z Vertex 2 {m}
  5.57695129776527, 0, 0,                 !- X,Y,Z Vertex 3 {m}
  5.57695129776527, 0, 2.4384;            !- X,Y,Z Vertex 4 {m}

OS:Surface,
  {f4b89081-8c7f-4d24-8eda-defbf522ee62}, !- Handle
  Surface 3,                              !- Name
  Wall,                                   !- Surface Type
  ,                                       !- Construction Name
  {22ae42a3-de81-4c55-965b-a3ac0d2ea3ce}, !- Space Name
  Surface,                                !- Outside Boundary Condition
  {a069280e-ef24-4773-a302-c552154f0a1c}, !- Outside Boundary Condition Object
  NoSun,                                  !- Sun Exposure
  NoWind,                                 !- Wind Exposure
  ,                                       !- View Factor to Ground
  ,                                       !- Number of Vertices
  11.6729512977653, 3.048, 2.4384,        !- X,Y,Z Vertex 1 {m}
  11.6729512977653, 3.048, 0,             !- X,Y,Z Vertex 2 {m}
  5.57695129776527, 3.048, 0,             !- X,Y,Z Vertex 3 {m}
  5.57695129776527, 3.048, 2.4384;        !- X,Y,Z Vertex 4 {m}

OS:Surface,
  {8143d378-46b7-4fc7-8cd0-64fc93b6ba6f}, !- Handle
  Surface 4,                              !- Name
  Wall,                                   !- Surface Type
  ,                                       !- Construction Name
  {22ae42a3-de81-4c55-965b-a3ac0d2ea3ce}, !- Space Name
  Outdoors,                               !- Outside Boundary Condition
  ,                                       !- Outside Boundary Condition Object
  SunExposed,                             !- Sun Exposure
  WindExposed,                            !- Wind Exposure
  ,                                       !- View Factor to Ground
  ,                                       !- Number of Vertices
  11.6729512977653, -3.048, 2.4384,       !- X,Y,Z Vertex 1 {m}
  11.6729512977653, -3.048, 0,            !- X,Y,Z Vertex 2 {m}
  11.6729512977653, 3.048, 0,             !- X,Y,Z Vertex 3 {m}
  11.6729512977653, 3.048, 2.4384;        !- X,Y,Z Vertex 4 {m}

OS:Surface,
  {a0889139-6165-47b9-bffb-2b4e43017835}, !- Handle
  Surface 5,                              !- Name
  Wall,                                   !- Surface Type
  ,                                       !- Construction Name
  {22ae42a3-de81-4c55-965b-a3ac0d2ea3ce}, !- Space Name
  Outdoors,                               !- Outside Boundary Condition
  ,                                       !- Outside Boundary Condition Object
  SunExposed,                             !- Sun Exposure
  WindExposed,                            !- Wind Exposure
  ,                                       !- View Factor to Ground
  ,                                       !- Number of Vertices
  5.57695129776527, -3.048, 2.4384,       !- X,Y,Z Vertex 1 {m}
  5.57695129776527, -3.048, 0,            !- X,Y,Z Vertex 2 {m}
  11.6729512977653, -3.048, 0,            !- X,Y,Z Vertex 3 {m}
  11.6729512977653, -3.048, 2.4384;       !- X,Y,Z Vertex 4 {m}

OS:Surface,
  {5787f268-fc37-43d5-8639-dbf4cf042fa7}, !- Handle
  Surface 6,                              !- Name
  RoofCeiling,                            !- Surface Type
  ,                                       !- Construction Name
  {22ae42a3-de81-4c55-965b-a3ac0d2ea3ce}, !- Space Name
  Surface,                                !- Outside Boundary Condition
  {bc5f1d72-a1b6-4b7c-9fb8-1dc3ec0f090f}, !- Outside Boundary Condition Object
  NoSun,                                  !- Sun Exposure
  NoWind,                                 !- Wind Exposure
  ,                                       !- View Factor to Ground
  ,                                       !- Number of Vertices
  11.6729512977653, -3.048, 2.4384,       !- X,Y,Z Vertex 1 {m}
  11.6729512977653, 3.048, 2.4384,        !- X,Y,Z Vertex 2 {m}
  5.57695129776527, 3.048, 2.4384,        !- X,Y,Z Vertex 3 {m}
  5.57695129776527, -3.048, 2.4384;       !- X,Y,Z Vertex 4 {m}

OS:SpaceType,
  {f64338ed-b230-48d6-81d2-e1edc48bfcae}, !- Handle
  Space Type 1,                           !- Name
  ,                                       !- Default Construction Set Name
  ,                                       !- Default Schedule Set Name
  ,                                       !- Group Rendering Name
  ,                                       !- Design Specification Outdoor Air Object Name
  ,                                       !- Standards Template
  ,                                       !- Standards Building Type
  garage;                                 !- Standards Space Type

OS:Space,
  {11d53c49-3677-4429-b30c-1c1500626f04}, !- Handle
  living space,                           !- Name
  {d134406b-b4ff-494c-857a-35f388073ee7}, !- Space Type Name
  ,                                       !- Default Construction Set Name
  ,                                       !- Default Schedule Set Name
  -0,                                     !- Direction of Relative North {deg}
  0,                                      !- X Origin {m}
  0,                                      !- Y Origin {m}
  0,                                      !- Z Origin {m}
  ,                                       !- Building Story Name
  {c8e9ab9b-5fda-4333-a94c-47e9fe4c78f3}, !- Thermal Zone Name
  ,                                       !- Part of Total Floor Area
  ,                                       !- Design Specification Outdoor Air Object Name
  {3dda7beb-ad2e-481b-9b66-04e3d34c93bd}; !- Building Unit Name

OS:Surface,
  {5ccaa622-fb57-41ef-a3d5-6aea09d0984a}, !- Handle
  Surface 7,                              !- Name
  Floor,                                  !- Surface Type
  ,                                       !- Construction Name
  {11d53c49-3677-4429-b30c-1c1500626f04}, !- Space Name
  Surface,                                !- Outside Boundary Condition
  {83d3fb3b-a097-44e9-9b7b-f87477efa85c}, !- Outside Boundary Condition Object
  NoSun,                                  !- Sun Exposure
  NoWind,                                 !- Wind Exposure
  ,                                       !- View Factor to Ground
  ,                                       !- Number of Vertices
  0, 0, 0,                                !- X,Y,Z Vertex 1 {m}
  0, 5.83647564888264, 0,                 !- X,Y,Z Vertex 2 {m}
  11.6729512977653, 5.83647564888264, 0,  !- X,Y,Z Vertex 3 {m}
  11.6729512977653, 3.048, 0,             !- X,Y,Z Vertex 4 {m}
  5.57695129776527, 3.048, 0,             !- X,Y,Z Vertex 5 {m}
  5.57695129776527, 0, 0;                 !- X,Y,Z Vertex 6 {m}

OS:Surface,
  {19369e55-8e4b-4058-97b0-a5373b337a32}, !- Handle
  Surface 8,                              !- Name
  Wall,                                   !- Surface Type
  ,                                       !- Construction Name
  {11d53c49-3677-4429-b30c-1c1500626f04}, !- Space Name
  Outdoors,                               !- Outside Boundary Condition
  ,                                       !- Outside Boundary Condition Object
  SunExposed,                             !- Sun Exposure
  WindExposed,                            !- Wind Exposure
  ,                                       !- View Factor to Ground
  ,                                       !- Number of Vertices
  0, 5.83647564888264, 2.4384,            !- X,Y,Z Vertex 1 {m}
  0, 5.83647564888264, 0,                 !- X,Y,Z Vertex 2 {m}
  0, 0, 0,                                !- X,Y,Z Vertex 3 {m}
  0, 0, 2.4384;                           !- X,Y,Z Vertex 4 {m}

OS:Surface,
  {3c499ae1-f29b-4a5f-ba36-e5dcad63f8ba}, !- Handle
  Surface 9,                              !- Name
  Wall,                                   !- Surface Type
  ,                                       !- Construction Name
  {11d53c49-3677-4429-b30c-1c1500626f04}, !- Space Name
  Outdoors,                               !- Outside Boundary Condition
  ,                                       !- Outside Boundary Condition Object
  SunExposed,                             !- Sun Exposure
  WindExposed,                            !- Wind Exposure
  ,                                       !- View Factor to Ground
  ,                                       !- Number of Vertices
  11.6729512977653, 5.83647564888264, 2.4384, !- X,Y,Z Vertex 1 {m}
  11.6729512977653, 5.83647564888264, 0,  !- X,Y,Z Vertex 2 {m}
  0, 5.83647564888264, 0,                 !- X,Y,Z Vertex 3 {m}
  0, 5.83647564888264, 2.4384;            !- X,Y,Z Vertex 4 {m}

OS:Surface,
  {09136c25-c025-4cf0-be93-96dfdd2cc067}, !- Handle
  Surface 10,                             !- Name
  Wall,                                   !- Surface Type
  ,                                       !- Construction Name
  {11d53c49-3677-4429-b30c-1c1500626f04}, !- Space Name
  Outdoors,                               !- Outside Boundary Condition
  ,                                       !- Outside Boundary Condition Object
  SunExposed,                             !- Sun Exposure
  WindExposed,                            !- Wind Exposure
  ,                                       !- View Factor to Ground
  ,                                       !- Number of Vertices
  11.6729512977653, 3.048, 2.4384,        !- X,Y,Z Vertex 1 {m}
  11.6729512977653, 3.048, 0,             !- X,Y,Z Vertex 2 {m}
  11.6729512977653, 5.83647564888264, 0,  !- X,Y,Z Vertex 3 {m}
  11.6729512977653, 5.83647564888264, 2.4384; !- X,Y,Z Vertex 4 {m}

OS:Surface,
  {a069280e-ef24-4773-a302-c552154f0a1c}, !- Handle
  Surface 11,                             !- Name
  Wall,                                   !- Surface Type
  ,                                       !- Construction Name
  {11d53c49-3677-4429-b30c-1c1500626f04}, !- Space Name
  Surface,                                !- Outside Boundary Condition
  {f4b89081-8c7f-4d24-8eda-defbf522ee62}, !- Outside Boundary Condition Object
  NoSun,                                  !- Sun Exposure
  NoWind,                                 !- Wind Exposure
  ,                                       !- View Factor to Ground
  ,                                       !- Number of Vertices
  5.57695129776527, 3.048, 2.4384,        !- X,Y,Z Vertex 1 {m}
  5.57695129776527, 3.048, 0,             !- X,Y,Z Vertex 2 {m}
  11.6729512977653, 3.048, 0,             !- X,Y,Z Vertex 3 {m}
  11.6729512977653, 3.048, 2.4384;        !- X,Y,Z Vertex 4 {m}

OS:Surface,
  {938b3886-a30d-4688-9ce1-f419df9d198b}, !- Handle
  Surface 12,                             !- Name
  Wall,                                   !- Surface Type
  ,                                       !- Construction Name
  {11d53c49-3677-4429-b30c-1c1500626f04}, !- Space Name
  Surface,                                !- Outside Boundary Condition
  {47029727-bdf7-4cf4-8623-81dc25d00d5c}, !- Outside Boundary Condition Object
  NoSun,                                  !- Sun Exposure
  NoWind,                                 !- Wind Exposure
  ,                                       !- View Factor to Ground
  ,                                       !- Number of Vertices
  5.57695129776527, 0, 2.4384,            !- X,Y,Z Vertex 1 {m}
  5.57695129776527, 0, 0,                 !- X,Y,Z Vertex 2 {m}
  5.57695129776527, 3.048, 0,             !- X,Y,Z Vertex 3 {m}
  5.57695129776527, 3.048, 2.4384;        !- X,Y,Z Vertex 4 {m}

OS:Surface,
  {12e1be84-3934-4905-b991-e8f431d39e94}, !- Handle
  Surface 13,                             !- Name
  Wall,                                   !- Surface Type
  ,                                       !- Construction Name
  {11d53c49-3677-4429-b30c-1c1500626f04}, !- Space Name
  Outdoors,                               !- Outside Boundary Condition
  ,                                       !- Outside Boundary Condition Object
  SunExposed,                             !- Sun Exposure
  WindExposed,                            !- Wind Exposure
  ,                                       !- View Factor to Ground
  ,                                       !- Number of Vertices
  0, 0, 2.4384,                           !- X,Y,Z Vertex 1 {m}
  0, 0, 0,                                !- X,Y,Z Vertex 2 {m}
  5.57695129776527, 0, 0,                 !- X,Y,Z Vertex 3 {m}
  5.57695129776527, 0, 2.4384;            !- X,Y,Z Vertex 4 {m}

OS:Surface,
  {33e28f09-d1ef-4d93-b9f0-3d2757b7e6b9}, !- Handle
  Surface 14,                             !- Name
  RoofCeiling,                            !- Surface Type
  ,                                       !- Construction Name
  {11d53c49-3677-4429-b30c-1c1500626f04}, !- Space Name
  Surface,                                !- Outside Boundary Condition
  {37d09458-c8a0-46bb-babf-00f63854be68}, !- Outside Boundary Condition Object
  NoSun,                                  !- Sun Exposure
  NoWind,                                 !- Wind Exposure
  ,                                       !- View Factor to Ground
  ,                                       !- Number of Vertices
  5.57695129776527, 0, 2.4384,            !- X,Y,Z Vertex 1 {m}
  5.57695129776527, 3.048, 2.4384,        !- X,Y,Z Vertex 2 {m}
  11.6729512977653, 3.048, 2.4384,        !- X,Y,Z Vertex 3 {m}
  11.6729512977653, 5.83647564888264, 2.4384, !- X,Y,Z Vertex 4 {m}
  0, 5.83647564888264, 2.4384,            !- X,Y,Z Vertex 5 {m}
  0, 0, 2.4384;                           !- X,Y,Z Vertex 6 {m}

OS:SpaceType,
  {d134406b-b4ff-494c-857a-35f388073ee7}, !- Handle
  Space Type 2,                           !- Name
  ,                                       !- Default Construction Set Name
  ,                                       !- Default Schedule Set Name