!- NOTE: Auto-generated from /test/osw_files/SFD_HVACSizing_Equip_UnitHeater_Autosize.osw

OS:Version,
  {42413baa-0716-4266-af36-d53f10f4fbc2}, !- Handle
  2.8.1;                                  !- Version Identifier

OS:SimulationControl,
  {d2208d5c-00f0-48f0-a6df-21eeded63585}, !- Handle
  ,                                       !- Do Zone Sizing Calculation
  ,                                       !- Do System Sizing Calculation
  ,                                       !- Do Plant Sizing Calculation
  No;                                     !- Run Simulation for Sizing Periods

OS:Timestep,
  {0bf699e3-438b-4eb3-8b39-89aed2139d8a}, !- Handle
  6;                                      !- Number of Timesteps per Hour

OS:ShadowCalculation,
  {62cb7828-fed2-4711-b93f-480f01969c11}, !- Handle
  20,                                     !- Calculation Frequency
  200;                                    !- Maximum Figures in Shadow Overlap Calculations

OS:SurfaceConvectionAlgorithm:Outside,
  {0c6e640a-d95e-499e-bcd3-3790443f4539}, !- Handle
  DOE-2;                                  !- Algorithm

OS:SurfaceConvectionAlgorithm:Inside,
  {fe0fef31-11f6-4813-ac89-b149d3967f20}, !- Handle
  TARP;                                   !- Algorithm

OS:ZoneCapacitanceMultiplier:ResearchSpecial,
  {91801f72-8705-46b7-bf04-29936f658220}, !- Handle
  ,                                       !- Temperature Capacity Multiplier
  15,                                     !- Humidity Capacity Multiplier
  ;                                       !- Carbon Dioxide Capacity Multiplier

OS:RunPeriod,
  {0aa7475c-029c-431c-8ce4-7d487ad3e430}, !- Handle
  Run Period 1,                           !- Name
  1,                                      !- Begin Month
  1,                                      !- Begin Day of Month
  12,                                     !- End Month
  31,                                     !- End Day of Month
  ,                                       !- Use Weather File Holidays and Special Days
  ,                                       !- Use Weather File Daylight Saving Period
  ,                                       !- Apply Weekend Holiday Rule
  ,                                       !- Use Weather File Rain Indicators
  ,                                       !- Use Weather File Snow Indicators
  ;                                       !- Number of Times Runperiod to be Repeated

OS:YearDescription,
  {2485c37d-f34e-4b0f-98fe-39ff18ba8ea7}, !- Handle
  2007,                                   !- Calendar Year
  ,                                       !- Day of Week for Start Day
  ;                                       !- Is Leap Year

OS:WeatherFile,
  {920e7274-6f8b-4cc1-8a8f-216c95d87918}, !- Handle
  Denver Intl Ap,                         !- City
  CO,                                     !- State Province Region
  USA,                                    !- Country
  TMY3,                                   !- Data Source
  725650,                                 !- WMO Number
  39.83,                                  !- Latitude {deg}
  -104.65,                                !- Longitude {deg}
  -7,                                     !- Time Zone {hr}
  1650,                                   !- Elevation {m}
  file:../weather/USA_CO_Denver.Intl.AP.725650_TMY3.epw, !- Url
  E23378AA;                               !- Checksum

OS:AdditionalProperties,
  {c308bbb0-d7ce-474d-9aa7-cdf5dd5126d1}, !- Handle
  {920e7274-6f8b-4cc1-8a8f-216c95d87918}, !- Object Name
  EPWHeaderCity,                          !- Feature Name 1
  String,                                 !- Feature Data Type 1
  Denver Intl Ap,                         !- Feature Value 1
  EPWHeaderState,                         !- Feature Name 2
  String,                                 !- Feature Data Type 2
  CO,                                     !- Feature Value 2
  EPWHeaderCountry,                       !- Feature Name 3
  String,                                 !- Feature Data Type 3
  USA,                                    !- Feature Value 3
  EPWHeaderDataSource,                    !- Feature Name 4
  String,                                 !- Feature Data Type 4
  TMY3,                                   !- Feature Value 4
  EPWHeaderStation,                       !- Feature Name 5
  String,                                 !- Feature Data Type 5
  725650,                                 !- Feature Value 5
  EPWHeaderLatitude,                      !- Feature Name 6
  Double,                                 !- Feature Data Type 6
  39.829999999999998,                     !- Feature Value 6
  EPWHeaderLongitude,                     !- Feature Name 7
  Double,                                 !- Feature Data Type 7
  -104.65000000000001,                    !- Feature Value 7
  EPWHeaderTimezone,                      !- Feature Name 8
  Double,                                 !- Feature Data Type 8
  -7,                                     !- Feature Value 8
  EPWHeaderAltitude,                      !- Feature Name 9
  Double,                                 !- Feature Data Type 9
  5413.3858267716532,                     !- Feature Value 9
  EPWHeaderLocalPressure,                 !- Feature Name 10
  Double,                                 !- Feature Data Type 10
  0.81937567683596546,                    !- Feature Value 10
  EPWHeaderRecordsPerHour,                !- Feature Name 11
  Double,                                 !- Feature Data Type 11
  0,                                      !- Feature Value 11
  EPWDataAnnualAvgDrybulb,                !- Feature Name 12
  Double,                                 !- Feature Data Type 12
  51.575616438356228,                     !- Feature Value 12
  EPWDataAnnualMinDrybulb,                !- Feature Name 13
  Double,                                 !- Feature Data Type 13
  -2.9200000000000017,                    !- Feature Value 13
  EPWDataAnnualMaxDrybulb,                !- Feature Name 14
  Double,                                 !- Feature Data Type 14
  104,                                    !- Feature Value 14
  EPWDataCDD50F,                          !- Feature Name 15
  Double,                                 !- Feature Data Type 15
  3072.2925000000005,                     !- Feature Value 15
  EPWDataCDD65F,                          !- Feature Name 16
  Double,                                 !- Feature Data Type 16
  883.62000000000035,                     !- Feature Value 16
  EPWDataHDD50F,                          !- Feature Name 17
  Double,                                 !- Feature Data Type 17
  2497.1925000000001,                     !- Feature Value 17
  EPWDataHDD65F,                          !- Feature Name 18
  Double,                                 !- Feature Data Type 18
  5783.5200000000013,                     !- Feature Value 18
  EPWDataAnnualAvgWindspeed,              !- Feature Name 19
  Double,                                 !- Feature Data Type 19
  3.9165296803649667,                     !- Feature Value 19
  EPWDataMonthlyAvgDrybulbs,              !- Feature Name 20
  String,                                 !- Feature Data Type 20
  33.4191935483871&#4431.90142857142857&#4443.02620967741937&#4442.48624999999999&#4459.877741935483854&#4473.57574999999997&#4472.07975806451608&#4472.70008064516134&#4466.49200000000006&#4450.079112903225806&#4437.218250000000005&#4434.582177419354835, !- Feature Value 20
  EPWDataGroundMonthlyTemps,              !- Feature Name 21
  String,                                 !- Feature Data Type 21
  44.08306285945173&#4440.89570904991865&#4440.64045432632048&#4442.153016571250646&#4448.225111118704206&#4454.268919273837525&#4459.508577937551024&#4462.82777283423508&#4463.10975667174995&#4460.41014950381947&#4455.304105212311526&#4449.445696474514364, !- Feature Value 21
  EPWDataWSF,                             !- Feature Name 22
  Double,                                 !- Feature Data Type 22
  0.58999999999999997,                    !- Feature Value 22
  EPWDataMonthlyAvgDailyHighDrybulbs,     !- Feature Name 23
  String,                                 !- Feature Data Type 23
  47.41032258064516&#4446.58642857142857&#4455.15032258064517&#4453.708&#4472.80193548387098&#4488.67600000000002&#4486.1858064516129&#4485.87225806451613&#4482.082&#4463.18064516129033&#4448.73400000000001&#4448.87935483870968, !- Feature Value 23
  EPWDataMonthlyAvgDailyLowDrybulbs,      !- Feature Name 24
  String,                                 !- Feature Data Type 24
  19.347741935483874&#4419.856428571428573&#4430.316129032258065&#4431.112&#4447.41612903225806&#4457.901999999999994&#4459.063870967741934&#4460.956774193548384&#4452.352000000000004&#4438.41612903225806&#4427.002000000000002&#4423.02903225806451, !- Feature Value 24
  EPWDesignHeatingDrybulb,                !- Feature Name 25
  Double,                                 !- Feature Data Type 25
  12.02,                                  !- Feature Value 25
  EPWDesignHeatingWindspeed,              !- Feature Name 26
  Double,                                 !- Feature Data Type 26
  2.8062500000000004,                     !- Feature Value 26
  EPWDesignCoolingDrybulb,                !- Feature Name 27
  Double,                                 !- Feature Data Type 27
  91.939999999999998,                     !- Feature Value 27
  EPWDesignCoolingWetbulb,                !- Feature Name 28
  Double,                                 !- Feature Data Type 28
  59.95131430195849,                      !- Feature Value 28
  EPWDesignCoolingHumidityRatio,          !- Feature Name 29
  Double,                                 !- Feature Data Type 29
  0.0059161086834698092,                  !- Feature Value 29
  EPWDesignCoolingWindspeed,              !- Feature Name 30
  Double,                                 !- Feature Data Type 30
  3.7999999999999989,                     !- Feature Value 30
  EPWDesignDailyTemperatureRange,         !- Feature Name 31
  Double,                                 !- Feature Data Type 31
  24.915483870967748,                     !- Feature Value 31
  EPWDesignDehumidDrybulb,                !- Feature Name 32
  Double,                                 !- Feature Data Type 32
  67.996785714285721,                     !- Feature Value 32
  EPWDesignDehumidHumidityRatio,          !- Feature Name 33
  Double,                                 !- Feature Data Type 33
  0.012133744170488724,                   !- Feature Value 33
  EPWDesignCoolingDirectNormal,           !- Feature Name 34
  Double,                                 !- Feature Data Type 34
  985,                                    !- Feature Value 34
  EPWDesignCoolingDiffuseHorizontal,      !- Feature Name 35
  Double,                                 !- Feature Data Type 35
  84;                                     !- Feature Value 35

OS:Site,
  {6bc2513c-8368-4ff6-8eaa-a05e0f5aa4a2}, !- Handle
  Denver Intl Ap_CO_USA,                  !- Name
  39.83,                                  !- Latitude {deg}
  -104.65,                                !- Longitude {deg}
  -7,                                     !- Time Zone {hr}
  1650,                                   !- Elevation {m}
  Suburbs;                                !- Terrain

OS:ClimateZones,
  {c4661d3b-2b3f-4de0-b130-51be5e1ae418}, !- Handle
  ,                                       !- Active Institution
  ,                                       !- Active Year
  ,                                       !- Climate Zone Institution Name 1
  ,                                       !- Climate Zone Document Name 1
  ,                                       !- Climate Zone Document Year 1
  ,                                       !- Climate Zone Value 1
  Building America,                       !- Climate Zone Institution Name 2
  ,                                       !- Climate Zone Document Name 2
  0,                                      !- Climate Zone Document Year 2
  Cold;                                   !- Climate Zone Value 2

OS:Site:WaterMainsTemperature,
  {fa78efa1-234d-49d6-87f9-ac18d5727dbc}, !- Handle
  Correlation,                            !- Calculation Method
  ,                                       !- Temperature Schedule Name
  10.8753424657535,                       !- Annual Average Outdoor Air Temperature {C}
  23.1524007936508;                       !- Maximum Difference In Monthly Average Outdoor Air Temperatures {deltaC}

OS:RunPeriodControl:DaylightSavingTime,
  {adfbd37b-7926-4203-b73b-4b6289c54feb}, !- Handle
  4/7,                                    !- Start Date
  10/26;                                  !- End Date

OS:Site:GroundTemperature:Deep,
  {a5556db2-5727-409c-aff0-9ae57312712a}, !- Handle
  10.8753424657535,                       !- January Deep Ground Temperature {C}
  10.8753424657535,                       !- February Deep Ground Temperature {C}
  10.8753424657535,                       !- March Deep Ground Temperature {C}
  10.8753424657535,                       !- April Deep Ground Temperature {C}
  10.8753424657535,                       !- May Deep Ground Temperature {C}
  10.8753424657535,                       !- June Deep Ground Temperature {C}
  10.8753424657535,                       !- July Deep Ground Temperature {C}
  10.8753424657535,                       !- August Deep Ground Temperature {C}
  10.8753424657535,                       !- September Deep Ground Temperature {C}
  10.8753424657535,                       !- October Deep Ground Temperature {C}
  10.8753424657535,                       !- November Deep Ground Temperature {C}
  10.8753424657535;                       !- December Deep Ground Temperature {C}

OS:ThermalZone,
  {a5af3bfb-a82e-45b8-a370-919e29dedd6c}, !- Handle
  living zone,                            !- Name
  ,                                       !- Multiplier
  ,                                       !- Ceiling Height {m}
  ,                                       !- Volume {m3}
  ,                                       !- Floor Area {m2}
  ,                                       !- Zone Inside Convection Algorithm
  ,                                       !- Zone Outside Convection Algorithm
  ,                                       !- Zone Conditioning Equipment List Name
  {0a0fd8b3-4907-4513-ab94-5189f02fd19e}, !- Zone Air Inlet Port List
  {f5ddeb02-b18a-4ee8-913b-ff822222d223}, !- Zone Air Exhaust Port List
  {d0faa442-d6a5-4411-8003-ee934e93aed2}, !- Zone Air Node Name
  {c64b856e-747d-4c4f-a5e6-4536a1ae7eb4}, !- Zone Return Air Port List
  ,                                       !- Primary Daylighting Control Name
  ,                                       !- Fraction of Zone Controlled by Primary Daylighting Control
  ,                                       !- Secondary Daylighting Control Name
  ,                                       !- Fraction of Zone Controlled by Secondary Daylighting Control
  ,                                       !- Illuminance Map Name
  ,                                       !- Group Rendering Name
  {ed358b57-8cce-4d0f-a6f0-076de1b67d0f}, !- Thermostat Name
  No;                                     !- Use Ideal Air Loads

OS:Node,
  {2362d582-63f5-41ee-805c-e001323ebbcc}, !- Handle
  Node 1,                                 !- Name
  {d0faa442-d6a5-4411-8003-ee934e93aed2}, !- Inlet Port
  ;                                       !- Outlet Port

OS:Connection,
  {d0faa442-d6a5-4411-8003-ee934e93aed2}, !- Handle
  {7f86d991-f237-4b33-9d01-64c11c791227}, !- Name
  {a5af3bfb-a82e-45b8-a370-919e29dedd6c}, !- Source Object
  11,                                     !- Outlet Port
  {2362d582-63f5-41ee-805c-e001323ebbcc}, !- Target Object
  2;                                      !- Inlet Port

OS:PortList,
  {0a0fd8b3-4907-4513-ab94-5189f02fd19e}, !- Handle
  {c7ec6f29-697d-4df6-90ea-b0c080b40c2f}, !- Name
  {a5af3bfb-a82e-45b8-a370-919e29dedd6c}, !- HVAC Component
  {db21a02f-cbd7-4ea5-bb2b-39c3eac58ac6}; !- Port 1

OS:PortList,
  {f5ddeb02-b18a-4ee8-913b-ff822222d223}, !- Handle
  {07ff2f8f-f6a7-44ac-be17-341ee1ee293a}, !- Name
  {a5af3bfb-a82e-45b8-a370-919e29dedd6c}, !- HVAC Component
  {f2202f25-e793-44af-a9b3-7eec1f0794a7}; !- Port 1

OS:PortList,
  {c64b856e-747d-4c4f-a5e6-4536a1ae7eb4}, !- Handle
  {2f977e8a-ba3c-4ba8-a8a5-c7aa1eadcaaa}, !- Name
  {a5af3bfb-a82e-45b8-a370-919e29dedd6c}; !- HVAC Component

OS:Sizing:Zone,
  {09fce382-a09f-4c9d-bffa-bba487f4e446}, !- Handle
  {a5af3bfb-a82e-45b8-a370-919e29dedd6c}, !- Zone or ZoneList Name
  SupplyAirTemperature,                   !- Zone Cooling Design Supply Air Temperature Input Method
  14,                                     !- Zone Cooling Design Supply Air Temperature {C}
  11.11,                                  !- Zone Cooling Design Supply Air Temperature Difference {deltaC}
  SupplyAirTemperature,                   !- Zone Heating Design Supply Air Temperature Input Method
  40,                                     !- Zone Heating Design Supply Air Temperature {C}
  11.11,                                  !- Zone Heating Design Supply Air Temperature Difference {deltaC}
  0.0085,                                 !- Zone Cooling Design Supply Air Humidity Ratio {kg-H2O/kg-air}
  0.008,                                  !- Zone Heating Design Supply Air Humidity Ratio {kg-H2O/kg-air}
  ,                                       !- Zone Heating Sizing Factor
  ,                                       !- Zone Cooling Sizing Factor
  DesignDay,                              !- Cooling Design Air Flow Method
  ,                                       !- Cooling Design Air Flow Rate {m3/s}
  ,                                       !- Cooling Minimum Air Flow per Zone Floor Area {m3/s-m2}
  ,                                       !- Cooling Minimum Air Flow {m3/s}
  ,                                       !- Cooling Minimum Air Flow Fraction
  DesignDay,                              !- Heating Design Air Flow Method
  ,                                       !- Heating Design Air Flow Rate {m3/s}
  ,                                       !- Heating Maximum Air Flow per Zone Floor Area {m3/s-m2}
  ,                                       !- Heating Maximum Air Flow {m3/s}
  ,                                       !- Heating Maximum Air Flow Fraction
  ,                                       !- Design Zone Air Distribution Effectiveness in Cooling Mode
  ,                                       !- Design Zone Air Distribution Effectiveness in Heating Mode
  No,                                     !- Account for Dedicated Outdoor Air System
  NeutralSupplyAir,                       !- Dedicated Outdoor Air System Control Strategy
  autosize,                               !- Dedicated Outdoor Air Low Setpoint Temperature for Design {C}
  autosize;                               !- Dedicated Outdoor Air High Setpoint Temperature for Design {C}

OS:ZoneHVAC:EquipmentList,
  {8549d2cd-345f-4849-9d55-e2b000627cac}, !- Handle
  Zone HVAC Equipment List 1,             !- Name
  {a5af3bfb-a82e-45b8-a370-919e29dedd6c}, !- Thermal Zone
  SequentialLoad,                         !- Load Distribution Scheme
  {83ae3142-c330-42ae-a4e9-20b211cb2af6}, !- Zone Equipment 1
  1,                                      !- Zone Equipment Cooling Sequence 1
  1,                                      !- Zone Equipment Heating or No-Load Sequence 1
  ,                                       !- Zone Equipment Sequential Cooling Fraction 1
  ;                                       !- Zone Equipment Sequential Heating Fraction 1

OS:ThermalZone,
  {e91ead3c-0ca1-4b5e-bdd4-edc9d5a5aa4b}, !- Handle
  garage zone,                            !- Name
  ,                                       !- Multiplier
  ,                                       !- Ceiling Height {m}
  ,                                       !- Volume {m3}
  ,                                       !- Floor Area {m2}
  ,                                       !- Zone Inside Convection Algorithm
  ,                                       !- Zone Outside Convection Algorithm
  ,                                       !- Zone Conditioning Equipment List Name
  {74880051-05e7-4a7c-ad6c-1ee6d1b2ad49}, !- Zone Air Inlet Port List
  {5710aecb-d2b8-4493-9fde-16ca61b4131e}, !- Zone Air Exhaust Port List
  {9b9b1d6e-d961-42fa-b619-1e7c3165947e}, !- Zone Air Node Name
  {ced74d10-638f-457c-8216-b352d02b5a71}, !- Zone Return Air Port List
  ,                                       !- Primary Daylighting Control Name
  ,                                       !- Fraction of Zone Controlled by Primary Daylighting Control
  ,                                       !- Secondary Daylighting Control Name
  ,                                       !- Fraction of Zone Controlled by Secondary Daylighting Control
  ,                                       !- Illuminance Map Name
  ,                                       !- Group Rendering Name
  ,                                       !- Thermostat Name
  No;                                     !- Use Ideal Air Loads

OS:Node,
  {56711c72-5a5e-4175-b7c6-c8ef807536a7}, !- Handle
  Node 2,                                 !- Name
  {9b9b1d6e-d961-42fa-b619-1e7c3165947e}, !- Inlet Port
  ;                                       !- Outlet Port

OS:Connection,
  {9b9b1d6e-d961-42fa-b619-1e7c3165947e}, !- Handle
  {21128a42-22e4-469d-9ca9-efe746103b68}, !- Name
  {e91ead3c-0ca1-4b5e-bdd4-edc9d5a5aa4b}, !- Source Object
  11,                                     !- Outlet Port
  {56711c72-5a5e-4175-b7c6-c8ef807536a7}, !- Target Object
  2;                                      !- Inlet Port

OS:PortList,
  {74880051-05e7-4a7c-ad6c-1ee6d1b2ad49}, !- Handle
  {a2b02139-7bb3-4a5c-9fbc-21370f3a458c}, !- Name
  {e91ead3c-0ca1-4b5e-bdd4-edc9d5a5aa4b}; !- HVAC Component

OS:PortList,
  {5710aecb-d2b8-4493-9fde-16ca61b4131e}, !- Handle
  {5b7d98d8-42f6-4ecc-a834-c988200a66fb}, !- Name
  {e91ead3c-0ca1-4b5e-bdd4-edc9d5a5aa4b}; !- HVAC Component

OS:PortList,
  {ced74d10-638f-457c-8216-b352d02b5a71}, !- Handle
  {7ee1732c-48f6-4070-9c43-196c225bc875}, !- Name
  {e91ead3c-0ca1-4b5e-bdd4-edc9d5a5aa4b}; !- HVAC Component

OS:Sizing:Zone,
  {647433e9-ea5a-4537-83db-f983362a4bc3}, !- Handle
  {e91ead3c-0ca1-4b5e-bdd4-edc9d5a5aa4b}, !- Zone or ZoneList Name
  SupplyAirTemperature,                   !- Zone Cooling Design Supply Air Temperature Input Method
  14,                                     !- Zone Cooling Design Supply Air Temperature {C}
  11.11,                                  !- Zone Cooling Design Supply Air Temperature Difference {deltaC}
  SupplyAirTemperature,                   !- Zone Heating Design Supply Air Temperature Input Method
  40,                                     !- Zone Heating Design Supply Air Temperature {C}
  11.11,                                  !- Zone Heating Design Supply Air Temperature Difference {deltaC}
  0.0085,                                 !- Zone Cooling Design Supply Air Humidity Ratio {kg-H2O/kg-air}
  0.008,                                  !- Zone Heating Design Supply Air Humidity Ratio {kg-H2O/kg-air}
  ,                                       !- Zone Heating Sizing Factor
  ,                                       !- Zone Cooling Sizing Factor
  DesignDay,                              !- Cooling Design Air Flow Method
  ,                                       !- Cooling Design Air Flow Rate {m3/s}
  ,                                       !- Cooling Minimum Air Flow per Zone Floor Area {m3/s-m2}
  ,                                       !- Cooling Minimum Air Flow {m3/s}
  ,                                       !- Cooling Minimum Air Flow Fraction
  DesignDay,                              !- Heating Design Air Flow Method
  ,                                       !- Heating Design Air Flow Rate {m3/s}
  ,                                       !- Heating Maximum Air Flow per Zone Floor Area {m3/s-m2}
  ,                                       !- Heating Maximum Air Flow {m3/s}
  ,                                       !- Heating Maximum Air Flow Fraction
  ,                                       !- Design Zone Air Distribution Effectiveness in Cooling Mode
  ,                                       !- Design Zone Air Distribution Effectiveness in Heating Mode
  No,                                     !- Account for Dedicated Outdoor Air System
  NeutralSupplyAir,                       !- Dedicated Outdoor Air System Control Strategy
  autosize,                               !- Dedicated Outdoor Air Low Setpoint Temperature for Design {C}
  autosize;                               !- Dedicated Outdoor Air High Setpoint Temperature for Design {C}

OS:ZoneHVAC:EquipmentList,
  {04fb2cd3-191a-4563-891c-584d5d11dc67}, !- Handle
  Zone HVAC Equipment List 2,             !- Name
  {e91ead3c-0ca1-4b5e-bdd4-edc9d5a5aa4b}; !- Thermal Zone

OS:Space,
  {95f03246-3e63-4fa1-ba2f-dc3789701631}, !- Handle
  garage space,                           !- Name
  {84ea54b8-80b5-452f-9361-61073e8d0aeb}, !- Space Type Name
  ,                                       !- Default Construction Set Name
  ,                                       !- Default Schedule Set Name
  -0,                                     !- Direction of Relative North {deg}
  0,                                      !- X Origin {m}
  0,                                      !- Y Origin {m}
  0,                                      !- Z Origin {m}
  ,                                       !- Building Story Name
  {e91ead3c-0ca1-4b5e-bdd4-edc9d5a5aa4b}; !- Thermal Zone Name

OS:Surface,
  {4bcd2bdd-5f05-4765-96b2-e8a0943b2372}, !- Handle
  Surface 1,                              !- Name
  Floor,                                  !- Surface Type
  {018c4938-e9a6-45bd-b82b-4060a2748e87}, !- Construction Name
  {95f03246-3e63-4fa1-ba2f-dc3789701631}, !- Space Name
  Foundation,                             !- Outside Boundary Condition
  {79db44c4-f382-41c3-95cf-ddb2ecbe8044}, !- Outside Boundary Condition Object
  NoSun,                                  !- Sun Exposure
  NoWind,                                 !- Wind Exposure
  ,                                       !- View Factor to Ground
  ,                                       !- Number of Vertices
  8.91701625975123, -3.048, 0,            !- X,Y,Z Vertex 1 {m}
  8.91701625975123, 3.048, 0,             !- X,Y,Z Vertex 2 {m}
  12.5746162597512, 3.048, 0,             !- X,Y,Z Vertex 3 {m}
  12.5746162597512, -3.048, 0;            !- X,Y,Z Vertex 4 {m}

OS:Surface,
  {99ba4820-9576-4a42-8bdf-2a9ddf073d14}, !- Handle
  Surface 2,                              !- Name
  Wall,                                   !- Surface Type
  {ad27ccf5-2b78-45ce-a1b7-87f2c2f8091c}, !- Construction Name
  {95f03246-3e63-4fa1-ba2f-dc3789701631}, !- Space Name
  Surface,                                !- Outside Boundary Condition
  {80ea4971-58d3-4df1-8cbd-b6112657b44c}, !- Outside Boundary Condition Object
  NoSun,                                  !- Sun Exposure
  NoWind,                                 !- Wind Exposure
  ,                                       !- View Factor to Ground
  ,                                       !- Number of Vertices
  8.91701625975123, 3.048, 2.4384,        !- X,Y,Z Vertex 1 {m}
  8.91701625975123, 3.048, 0,             !- X,Y,Z Vertex 2 {m}
  8.91701625975123, 0, 0,                 !- X,Y,Z Vertex 3 {m}
  8.91701625975123, 0, 2.4384;            !- X,Y,Z Vertex 4 {m}

OS:Surface,
  {c55c15c6-cdd5-4f3f-955e-bd904e74f2da}, !- Handle
  Surface 3,                              !- Name
  Wall,                                   !- Surface Type
  {ad27ccf5-2b78-45ce-a1b7-87f2c2f8091c}, !- Construction Name
  {95f03246-3e63-4fa1-ba2f-dc3789701631}, !- Space Name
  Surface,                                !- Outside Boundary Condition
  {294b749c-faa4-495a-9625-848f482f61e8}, !- Outside Boundary Condition Object
  NoSun,                                  !- Sun Exposure
  NoWind,                                 !- Wind Exposure
  ,                                       !- View Factor to Ground
  ,                                       !- Number of Vertices
  12.5746162597512, 3.048, 2.4384,        !- X,Y,Z Vertex 1 {m}
  12.5746162597512, 3.048, 0,             !- X,Y,Z Vertex 2 {m}
  8.91701625975123, 3.048, 0,             !- X,Y,Z Vertex 3 {m}
  8.91701625975123, 3.048, 2.4384;        !- X,Y,Z Vertex 4 {m}

OS:Surface,
  {520ff8c5-d87e-42b3-b721-1fe730b25d5f}, !- Handle
  Surface 4,                              !- Name
  Wall,                                   !- Surface Type
  {f267d904-a542-4dd0-9b18-f13645422ce8}, !- Construction Name
  {95f03246-3e63-4fa1-ba2f-dc3789701631}, !- Space Name
  Outdoors,                               !- Outside Boundary Condition
  ,                                       !- Outside Boundary Condition Object
  SunExposed,                             !- Sun Exposure
  WindExposed,                            !- Wind Exposure
  ,                                       !- View Factor to Ground
  ,                                       !- Number of Vertices
  12.5746162597512, -3.048, 2.4384,       !- X,Y,Z Vertex 1 {m}
  12.5746162597512, -3.048, 0,            !- X,Y,Z Vertex 2 {m}
  12.5746162597512, 3.048, 0,             !- X,Y,Z Vertex 3 {m}
  12.5746162597512, 3.048, 2.4384;        !- X,Y,Z Vertex 4 {m}

OS:Surface,
  {dc713816-1157-4b56-9e0c-a846fcfbf6bc}, !- Handle
  Surface 5,                              !- Name
  Wall,                                   !- Surface Type
  {f267d904-a542-4dd0-9b18-f13645422ce8}, !- Construction Name
  {95f03246-3e63-4fa1-ba2f-dc3789701631}, !- Space Name
  Outdoors,                               !- Outside Boundary Condition
  ,                                       !- Outside Boundary Condition Object
  SunExposed,                             !- Sun Exposure