!- NOTE: Auto-generated from /test/osw_files/SFD_2story_PB_UA_ElecFurnace_ElecTankWH.osw

OS:Version,
  {14068168-c54f-4fed-bdfc-760aff705e71}, !- Handle
  2.9.1;                                  !- Version Identifier

OS:SimulationControl,
  {b43e7654-0e79-4d03-b7fc-b7532087e590}, !- Handle
  ,                                       !- Do Zone Sizing Calculation
  ,                                       !- Do System Sizing Calculation
  ,                                       !- Do Plant Sizing Calculation
  No;                                     !- Run Simulation for Sizing Periods

OS:Timestep,
  {bd032016-2b08-4e6a-9788-d61caeb1de03}, !- Handle
  6;                                      !- Number of Timesteps per Hour

OS:ShadowCalculation,
  {58f00607-b843-42f5-948c-3b9271e0b964}, !- Handle
  20,                                     !- Calculation Frequency
  200;                                    !- Maximum Figures in Shadow Overlap Calculations

OS:SurfaceConvectionAlgorithm:Outside,
  {cc66caeb-6c60-4205-b7cb-6590d7dc57cb}, !- Handle
  DOE-2;                                  !- Algorithm

OS:SurfaceConvectionAlgorithm:Inside,
  {77f020b5-4197-4d1e-bb7e-f63a6ca72f83}, !- Handle
  TARP;                                   !- Algorithm

OS:ZoneCapacitanceMultiplier:ResearchSpecial,
  {b6735f38-f648-4d7c-9cc3-7554e9530afa}, !- Handle
  ,                                       !- Temperature Capacity Multiplier
  15,                                     !- Humidity Capacity Multiplier
  ;                                       !- Carbon Dioxide Capacity Multiplier

OS:RunPeriod,
  {485b0a41-d5e4-4e75-8331-918940fc939b}, !- Handle
  Run Period 1,                           !- Name
  1,                                      !- Begin Month
  1,                                      !- Begin Day of Month
  12,                                     !- End Month
  31,                                     !- End Day of Month
  ,                                       !- Use Weather File Holidays and Special Days
  ,                                       !- Use Weather File Daylight Saving Period
  ,                                       !- Apply Weekend Holiday Rule
  ,                                       !- Use Weather File Rain Indicators
  ,                                       !- Use Weather File Snow Indicators
  ;                                       !- Number of Times Runperiod to be Repeated

OS:YearDescription,
  {683ab6e2-b0d0-4734-a184-ba637d5f5749}, !- Handle
  2007,                                   !- Calendar Year
  ,                                       !- Day of Week for Start Day
  ;                                       !- Is Leap Year

OS:WeatherFile,
  {3868fe9f-f536-4327-9a78-39600ccb2e89}, !- Handle
  Denver Intl Ap,                         !- City
  CO,                                     !- State Province Region
  USA,                                    !- Country
  TMY3,                                   !- Data Source
  725650,                                 !- WMO Number
  39.83,                                  !- Latitude {deg}
  -104.65,                                !- Longitude {deg}
  -7,                                     !- Time Zone {hr}
  1650,                                   !- Elevation {m}
  file:../weather/USA_CO_Denver.Intl.AP.725650_TMY3.epw, !- Url
  E23378AA;                               !- Checksum

OS:AdditionalProperties,
  {46ed9e96-7e8a-4096-8395-dcccc29a5dad}, !- Handle
  {3868fe9f-f536-4327-9a78-39600ccb2e89}, !- Object Name
  EPWHeaderCity,                          !- Feature Name 1
  String,                                 !- Feature Data Type 1
  Denver Intl Ap,                         !- Feature Value 1
  EPWHeaderState,                         !- Feature Name 2
  String,                                 !- Feature Data Type 2
  CO,                                     !- Feature Value 2
  EPWHeaderCountry,                       !- Feature Name 3
  String,                                 !- Feature Data Type 3
  USA,                                    !- Feature Value 3
  EPWHeaderDataSource,                    !- Feature Name 4
  String,                                 !- Feature Data Type 4
  TMY3,                                   !- Feature Value 4
  EPWHeaderStation,                       !- Feature Name 5
  String,                                 !- Feature Data Type 5
  725650,                                 !- Feature Value 5
  EPWHeaderLatitude,                      !- Feature Name 6
  Double,                                 !- Feature Data Type 6
  39.829999999999998,                     !- Feature Value 6
  EPWHeaderLongitude,                     !- Feature Name 7
  Double,                                 !- Feature Data Type 7
  -104.65000000000001,                    !- Feature Value 7
  EPWHeaderTimezone,                      !- Feature Name 8
  Double,                                 !- Feature Data Type 8
  -7,                                     !- Feature Value 8
  EPWHeaderAltitude,                      !- Feature Name 9
  Double,                                 !- Feature Data Type 9
  5413.3858267716532,                     !- Feature Value 9
  EPWHeaderLocalPressure,                 !- Feature Name 10
  Double,                                 !- Feature Data Type 10
  0.81937567683596546,                    !- Feature Value 10
  EPWHeaderRecordsPerHour,                !- Feature Name 11
  Double,                                 !- Feature Data Type 11
  0,                                      !- Feature Value 11
  EPWDataAnnualAvgDrybulb,                !- Feature Name 12
  Double,                                 !- Feature Data Type 12
  51.575616438356228,                     !- Feature Value 12
  EPWDataAnnualMinDrybulb,                !- Feature Name 13
  Double,                                 !- Feature Data Type 13
  -2.9200000000000017,                    !- Feature Value 13
  EPWDataAnnualMaxDrybulb,                !- Feature Name 14
  Double,                                 !- Feature Data Type 14
  104,                                    !- Feature Value 14
  EPWDataCDD50F,                          !- Feature Name 15
  Double,                                 !- Feature Data Type 15
  3072.2925000000005,                     !- Feature Value 15
  EPWDataCDD65F,                          !- Feature Name 16
  Double,                                 !- Feature Data Type 16
  883.62000000000035,                     !- Feature Value 16
  EPWDataHDD50F,                          !- Feature Name 17
  Double,                                 !- Feature Data Type 17
  2497.1925000000001,                     !- Feature Value 17
  EPWDataHDD65F,                          !- Feature Name 18
  Double,                                 !- Feature Data Type 18
  5783.5200000000013,                     !- Feature Value 18
  EPWDataAnnualAvgWindspeed,              !- Feature Name 19
  Double,                                 !- Feature Data Type 19
  3.9165296803649667,                     !- Feature Value 19
  EPWDataMonthlyAvgDrybulbs,              !- Feature Name 20
  String,                                 !- Feature Data Type 20
  33.4191935483871&#4431.90142857142857&#4443.02620967741937&#4442.48624999999999&#4459.877741935483854&#4473.57574999999997&#4472.07975806451608&#4472.70008064516134&#4466.49200000000006&#4450.079112903225806&#4437.218250000000005&#4434.582177419354835, !- Feature Value 20
  EPWDataGroundMonthlyTemps,              !- Feature Name 21
  String,                                 !- Feature Data Type 21
  44.08306285945173&#4440.89570904991865&#4440.64045432632048&#4442.153016571250646&#4448.225111118704206&#4454.268919273837525&#4459.508577937551024&#4462.82777283423508&#4463.10975667174995&#4460.41014950381947&#4455.304105212311526&#4449.445696474514364, !- Feature Value 21
  EPWDataWSF,                             !- Feature Name 22
  Double,                                 !- Feature Data Type 22
  0.58999999999999997,                    !- Feature Value 22
  EPWDataMonthlyAvgDailyHighDrybulbs,     !- Feature Name 23
  String,                                 !- Feature Data Type 23
  47.41032258064516&#4446.58642857142857&#4455.15032258064517&#4453.708&#4472.80193548387098&#4488.67600000000002&#4486.1858064516129&#4485.87225806451613&#4482.082&#4463.18064516129033&#4448.73400000000001&#4448.87935483870968, !- Feature Value 23
  EPWDataMonthlyAvgDailyLowDrybulbs,      !- Feature Name 24
  String,                                 !- Feature Data Type 24
  19.347741935483874&#4419.856428571428573&#4430.316129032258065&#4431.112&#4447.41612903225806&#4457.901999999999994&#4459.063870967741934&#4460.956774193548384&#4452.352000000000004&#4438.41612903225806&#4427.002000000000002&#4423.02903225806451, !- Feature Value 24
  EPWDesignHeatingDrybulb,                !- Feature Name 25
  Double,                                 !- Feature Data Type 25
  12.02,                                  !- Feature Value 25
  EPWDesignHeatingWindspeed,              !- Feature Name 26
  Double,                                 !- Feature Data Type 26
  2.8062500000000004,                     !- Feature Value 26
  EPWDesignCoolingDrybulb,                !- Feature Name 27
  Double,                                 !- Feature Data Type 27
  91.939999999999998,                     !- Feature Value 27
  EPWDesignCoolingWetbulb,                !- Feature Name 28
  Double,                                 !- Feature Data Type 28
  59.95131430195849,                      !- Feature Value 28
  EPWDesignCoolingHumidityRatio,          !- Feature Name 29
  Double,                                 !- Feature Data Type 29
  0.0059161086834698092,                  !- Feature Value 29
  EPWDesignCoolingWindspeed,              !- Feature Name 30
  Double,                                 !- Feature Data Type 30
  3.7999999999999989,                     !- Feature Value 30
  EPWDesignDailyTemperatureRange,         !- Feature Name 31
  Double,                                 !- Feature Data Type 31
  24.915483870967748,                     !- Feature Value 31
  EPWDesignDehumidDrybulb,                !- Feature Name 32
  Double,                                 !- Feature Data Type 32
  67.996785714285721,                     !- Feature Value 32
  EPWDesignDehumidHumidityRatio,          !- Feature Name 33
  Double,                                 !- Feature Data Type 33
  0.012133744170488724,                   !- Feature Value 33
  EPWDesignCoolingDirectNormal,           !- Feature Name 34
  Double,                                 !- Feature Data Type 34
  985,                                    !- Feature Value 34
  EPWDesignCoolingDiffuseHorizontal,      !- Feature Name 35
  Double,                                 !- Feature Data Type 35
  84;                                     !- Feature Value 35

OS:Site,
  {0b151f36-92c3-458f-8f0f-56837b860496}, !- Handle
  Denver Intl Ap_CO_USA,                  !- Name
  39.83,                                  !- Latitude {deg}
  -104.65,                                !- Longitude {deg}
  -7,                                     !- Time Zone {hr}
  1650,                                   !- Elevation {m}
  Suburbs;                                !- Terrain

OS:ClimateZones,
  {736cb91a-5a24-467c-93d1-5a278ab9e85c}, !- Handle
  ,                                       !- Active Institution
  ,                                       !- Active Year
  ,                                       !- Climate Zone Institution Name 1
  ,                                       !- Climate Zone Document Name 1
  ,                                       !- Climate Zone Document Year 1
  ,                                       !- Climate Zone Value 1
  Building America,                       !- Climate Zone Institution Name 2
  ,                                       !- Climate Zone Document Name 2
  0,                                      !- Climate Zone Document Year 2
  Cold;                                   !- Climate Zone Value 2

OS:Site:WaterMainsTemperature,
  {c55b67af-9628-4db8-81cb-b0684429082c}, !- Handle
  Correlation,                            !- Calculation Method
  ,                                       !- Temperature Schedule Name
  10.8753424657535,                       !- Annual Average Outdoor Air Temperature {C}
  23.1524007936508;                       !- Maximum Difference In Monthly Average Outdoor Air Temperatures {deltaC}

OS:RunPeriodControl:DaylightSavingTime,
  {cf301385-caf7-4999-8dd4-631e44455556}, !- Handle
  4/7,                                    !- Start Date
  10/26;                                  !- End Date

OS:Site:GroundTemperature:Deep,
  {8df86be7-d776-4fc0-900c-185db3810f0e}, !- Handle
  10.8753424657535,                       !- January Deep Ground Temperature {C}
  10.8753424657535,                       !- February Deep Ground Temperature {C}
  10.8753424657535,                       !- March Deep Ground Temperature {C}
  10.8753424657535,                       !- April Deep Ground Temperature {C}
  10.8753424657535,                       !- May Deep Ground Temperature {C}
  10.8753424657535,                       !- June Deep Ground Temperature {C}
  10.8753424657535,                       !- July Deep Ground Temperature {C}
  10.8753424657535,                       !- August Deep Ground Temperature {C}
  10.8753424657535,                       !- September Deep Ground Temperature {C}
  10.8753424657535,                       !- October Deep Ground Temperature {C}
  10.8753424657535,                       !- November Deep Ground Temperature {C}
  10.8753424657535;                       !- December Deep Ground Temperature {C}

OS:ThermalZone,
  {b6af8907-b909-464a-92a5-310777241b48}, !- Handle
  living zone,                            !- Name
  ,                                       !- Multiplier
  ,                                       !- Ceiling Height {m}
  ,                                       !- Volume {m3}
  ,                                       !- Floor Area {m2}
  ,                                       !- Zone Inside Convection Algorithm
  ,                                       !- Zone Outside Convection Algorithm
  ,                                       !- Zone Conditioning Equipment List Name
  {ab26c4be-ab7b-43b6-ab16-331f78dbf77b}, !- Zone Air Inlet Port List
  {652b06f7-1461-41dc-96a8-99b4f8dc2b96}, !- Zone Air Exhaust Port List
  {3028bfa3-57b4-4bd5-90cd-73149ca92351}, !- Zone Air Node Name
  {d079b7ad-0f10-4a0b-9dfd-0d2b2903fb21}, !- Zone Return Air Port List
  ,                                       !- Primary Daylighting Control Name
  ,                                       !- Fraction of Zone Controlled by Primary Daylighting Control
  ,                                       !- Secondary Daylighting Control Name
  ,                                       !- Fraction of Zone Controlled by Secondary Daylighting Control
  ,                                       !- Illuminance Map Name
  ,                                       !- Group Rendering Name
  {a39d53e7-b18e-40a4-bed5-8f87cda64226}, !- Thermostat Name
  No;                                     !- Use Ideal Air Loads

OS:Node,
  {e88a8612-eada-4b97-8aa0-a0ee1d545d96}, !- Handle
  Node 1,                                 !- Name
  {3028bfa3-57b4-4bd5-90cd-73149ca92351}, !- Inlet Port
  ;                                       !- Outlet Port

OS:Connection,
  {3028bfa3-57b4-4bd5-90cd-73149ca92351}, !- Handle
  {ccab13f6-0137-465d-b862-7d215e0e75ae}, !- Name
  {b6af8907-b909-464a-92a5-310777241b48}, !- Source Object
  11,                                     !- Outlet Port
  {e88a8612-eada-4b97-8aa0-a0ee1d545d96}, !- Target Object
  2;                                      !- Inlet Port

OS:PortList,
  {ab26c4be-ab7b-43b6-ab16-331f78dbf77b}, !- Handle
  {13840622-e0c4-44cf-be52-6df75d60e00a}, !- Name
  {b6af8907-b909-464a-92a5-310777241b48}, !- HVAC Component
  {df9fbb29-b8ec-4942-bf69-fb670ff8a125}; !- Port 1

OS:PortList,
  {652b06f7-1461-41dc-96a8-99b4f8dc2b96}, !- Handle
  {411a669f-e852-4c14-a3b4-3710ce868f6f}, !- Name
  {b6af8907-b909-464a-92a5-310777241b48}; !- HVAC Component

OS:PortList,
  {d079b7ad-0f10-4a0b-9dfd-0d2b2903fb21}, !- Handle
  {92c3429e-dc3e-43ac-8767-4ecd30ba9c6f}, !- Name
  {b6af8907-b909-464a-92a5-310777241b48}, !- HVAC Component
  {0e97cebf-fcb6-4a86-a6c4-ad7a4b37da0a}; !- Port 1

OS:Sizing:Zone,
  {342097b4-b6f1-40c2-827f-2435017e1c61}, !- Handle
  {b6af8907-b909-464a-92a5-310777241b48}, !- Zone or ZoneList Name
  SupplyAirTemperature,                   !- Zone Cooling Design Supply Air Temperature Input Method
  14,                                     !- Zone Cooling Design Supply Air Temperature {C}
  11.11,                                  !- Zone Cooling Design Supply Air Temperature Difference {deltaC}
  SupplyAirTemperature,                   !- Zone Heating Design Supply Air Temperature Input Method
  40,                                     !- Zone Heating Design Supply Air Temperature {C}
  11.11,                                  !- Zone Heating Design Supply Air Temperature Difference {deltaC}
  0.0085,                                 !- Zone Cooling Design Supply Air Humidity Ratio {kg-H2O/kg-air}
  0.008,                                  !- Zone Heating Design Supply Air Humidity Ratio {kg-H2O/kg-air}
  ,                                       !- Zone Heating Sizing Factor
  ,                                       !- Zone Cooling Sizing Factor
  DesignDay,                              !- Cooling Design Air Flow Method
  ,                                       !- Cooling Design Air Flow Rate {m3/s}
  ,                                       !- Cooling Minimum Air Flow per Zone Floor Area {m3/s-m2}
  ,                                       !- Cooling Minimum Air Flow {m3/s}
  ,                                       !- Cooling Minimum Air Flow Fraction
  DesignDay,                              !- Heating Design Air Flow Method
  ,                                       !- Heating Design Air Flow Rate {m3/s}
  ,                                       !- Heating Maximum Air Flow per Zone Floor Area {m3/s-m2}
  ,                                       !- Heating Maximum Air Flow {m3/s}
  ,                                       !- Heating Maximum Air Flow Fraction
  ,                                       !- Design Zone Air Distribution Effectiveness in Cooling Mode
  ,                                       !- Design Zone Air Distribution Effectiveness in Heating Mode
  No,                                     !- Account for Dedicated Outdoor Air System
  NeutralSupplyAir,                       !- Dedicated Outdoor Air System Control Strategy
  autosize,                               !- Dedicated Outdoor Air Low Setpoint Temperature for Design {C}
  autosize;                               !- Dedicated Outdoor Air High Setpoint Temperature for Design {C}

OS:ZoneHVAC:EquipmentList,
  {e5a262aa-4340-4f44-85f1-737eec8eddaa}, !- Handle
  Zone HVAC Equipment List 1,             !- Name
  {b6af8907-b909-464a-92a5-310777241b48}, !- Thermal Zone
  SequentialLoad,                         !- Load Distribution Scheme
  {43f51484-cffc-433e-828d-16e721a82c8c}, !- Zone Equipment 1
  1,                                      !- Zone Equipment Cooling Sequence 1
  1,                                      !- Zone Equipment Heating or No-Load Sequence 1
  ,                                       !- Zone Equipment Sequential Cooling Fraction Schedule Name 1
  ;                                       !- Zone Equipment Sequential Heating Fraction Schedule Name 1

OS:Space,
  {99606186-4390-4d63-a26e-38a23a24b282}, !- Handle
  living space,                           !- Name
  {85b18924-8289-4b46-9eda-6fab1bb39af3}, !- Space Type Name
  ,                                       !- Default Construction Set Name
  ,                                       !- Default Schedule Set Name
  -0,                                     !- Direction of Relative North {deg}
  0,                                      !- X Origin {m}
  0,                                      !- Y Origin {m}
  1.2192,                                 !- Z Origin {m}
  ,                                       !- Building Story Name
  {b6af8907-b909-464a-92a5-310777241b48}, !- Thermal Zone Name
  ,                                       !- Part of Total Floor Area
  ,                                       !- Design Specification Outdoor Air Object Name
  {e97cfc37-8e8a-4d35-ad3d-399458b16ca9}; !- Building Unit Name

OS:Surface,
  {ee2047c0-c621-4106-ba83-74972cb44ff8}, !- Handle
  Surface 1,                              !- Name
  Floor,                                  !- Surface Type
  {9ed3b691-e0cf-4384-8f26-0eeb0722e4aa}, !- Construction Name
  {99606186-4390-4d63-a26e-38a23a24b282}, !- Space Name
  Surface,                                !- Outside Boundary Condition
  {018c6692-a12e-421e-bdf1-739dd34fb899}, !- Outside Boundary Condition Object
  NoSun,                                  !- Sun Exposure
  NoWind,                                 !- Wind Exposure
  ,                                       !- View Factor to Ground
  ,                                       !- Number of Vertices
  0, 0, 0,                                !- X,Y,Z Vertex 1 {m}
  0, 7.18420489685532, 0,                 !- X,Y,Z Vertex 2 {m}
  12.9315688143396, 7.18420489685532, 0,  !- X,Y,Z Vertex 3 {m}
  12.9315688143396, 0, 0;                 !- X,Y,Z Vertex 4 {m}

OS:Surface,
  {f1dcb4cf-b0d8-4cc4-8334-a39405af954b}, !- Handle
  Surface 2,                              !- Name
  Wall,                                   !- Surface Type
  {3ee33239-030a-43e7-9ee0-99dec024c1c0}, !- Construction Name
  {99606186-4390-4d63-a26e-38a23a24b282}, !- Space Name
  Outdoors,                               !- Outside Boundary Condition
  ,                                       !- Outside Boundary Condition Object
  SunExposed,                             !- Sun Exposure
  WindExposed,                            !- Wind Exposure
  ,                                       !- View Factor to Ground
  ,                                       !- Number of Vertices
  0, 7.18420489685532, 2.4384,            !- X,Y,Z Vertex 1 {m}
  0, 7.18420489685532, 0,                 !- X,Y,Z Vertex 2 {m}
  0, 0, 0,                                !- X,Y,Z Vertex 3 {m}
  0, 0, 2.4384;                           !- X,Y,Z Vertex 4 {m}

OS:Surface,
  {9a561239-c889-4f7f-9d60-a2f95f2c0129}, !- Handle
  Surface 3,                              !- Name
  Wall,                                   !- Surface Type
  {3ee33239-030a-43e7-9ee0-99dec024c1c0}, !- Construction Name
  {99606186-4390-4d63-a26e-38a23a24b282}, !- Space Name
  Outdoors,                               !- Outside Boundary Condition
  ,                                       !- Outside Boundary Condition Object
  SunExposed,                             !- Sun Exposure
  WindExposed,                            !- Wind Exposure
  ,                                       !- View Factor to Ground
  ,                                       !- Number of Vertices
  12.9315688143396, 7.18420489685532, 2.4384, !- X,Y,Z Vertex 1 {m}
  12.9315688143396, 7.18420489685532, 0,  !- X,Y,Z Vertex 2 {m}
  0, 7.18420489685532, 0,                 !- X,Y,Z Vertex 3 {m}
  0, 7.18420489685532, 2.4384;            !- X,Y,Z Vertex 4 {m}

OS:Surface,
  {ec0fdb3a-9ad9-4394-b42c-3c31d167ff26}, !- Handle
  Surface 4,                              !- Name
  Wall,                                   !- Surface Type
  {3ee33239-030a-43e7-9ee0-99dec024c1c0}, !- Construction Name
  {99606186-4390-4d63-a26e-38a23a24b282}, !- Space Name
  Outdoors,                               !- Outside Boundary Condition
  ,                                       !- Outside Boundary Condition Object
  SunExposed,                             !- Sun Exposure
  WindExposed,                            !- Wind Exposure
  ,                                       !- View Factor to Ground
  ,                                       !- Number of Vertices
  12.9315688143396, 0, 2.4384,            !- X,Y,Z Vertex 1 {m}
  12.9315688143396, 0, 0,                 !- X,Y,Z Vertex 2 {m}
  12.9315688143396, 7.18420489685532, 0,  !- X,Y,Z Vertex 3 {m}
  12.9315688143396, 7.18420489685532, 2.4384; !- X,Y,Z Vertex 4 {m}

OS:Surface,
  {ed717e32-f38d-45a3-9c97-f2dbd56ab54b}, !- Handle
  Surface 5,                              !- Name
  Wall,                                   !- Surface Type
  {3ee33239-030a-43e7-9ee0-99dec024c1c0}, !- Construction Name
  {99606186-4390-4d63-a26e-38a23a24b282}, !- Space Name
  Outdoors,                               !- Outside Boundary Condition
  ,                                       !- Outside Boundary Condition Object
  SunExposed,                             !- Sun Exposure
  WindExposed,                            !- Wind Exposure
  ,                                       !- View Factor to Ground
  ,                                       !- Number of Vertices
  12.9315688143396, 0, 0,                 !- X,Y,Z Vertex 1 {m}
  12.9315688143396, 0, 2.4384,            !- X,Y,Z Vertex 2 {m}
  1.91951428571429, 0, 2.4384,            !- X,Y,Z Vertex 3 {m}
  1.91951428571429, 0, 0;                 !- X,Y,Z Vertex 4 {m}

OS:Surface,
  {a044af43-93a3-4cd2-a3e0-fdaf849c3faf}, !- Handle
  Surface 6,                              !- Name
  RoofCeiling,                            !- Surface Type
  {50c6aa12-34f7-4e78-b744-cf1250d84219}, !- Construction Name
  {99606186-4390-4d63-a26e-38a23a24b282}, !- Space Name
  Surface,                                !- Outside Boundary Condition
  {9108151f-b279-4265-868e-b7a4a8c181e2}, !- Outside Boundary Condition Object
  NoSun,                                  !- Sun Exposure
  NoWind,                                 !- Wind Exposure
  ,                                       !- View Factor to Ground
  ,                                       !- Number of Vertices
  12.9315688143396, 0, 2.4384,            !- X,Y,Z Vertex 1 {m}
  12.9315688143396, 7.18420489685532, 2.4384, !- X,Y,Z Vertex 2 {m}
  0, 7.18420489685532, 2.4384,            !- X,Y,Z Vertex 3 {m}
  0, 0, 2.4384;                           !- X,Y,Z Vertex 4 {m}

OS:SpaceType,
  {85b18924-8289-4b46-9eda-6fab1bb39af3}, !- Handle
  Space Type 1,                           !- Name
  ,                                       !- Default Construction Set Name
  ,                                       !- Default Schedule Set Name
  ,                                       !- Group Rendering Name
  ,                                       !- Design Specification Outdoor Air Object Name
  ,                                       !- Standards Template
  ,                                       !- Standards Building Type
  living;                                 !- Standards Space Type

OS:Space,
  {033e627b-899c-4b72-bb6e-ca70bcb15134}, !- Handle
  living space|story 2,                   !- Name
  {85b18924-8289-4b46-9eda-6fab1bb39af3}, !- Space Type Name
  ,                                       !- Default Construction Set Name
  ,                                       !- Default Schedule Set Name
  -0,                                     !- Direction of Relative North {deg}
  0,                                      !- X Origin {m}
  0,                                      !- Y Origin {m}
  3.6576,                                 !- Z Origin {m}
  ,                                       !- Building Story Name
  {b6af8907-b909-464a-92a5-310777241b48}, !- Thermal Zone Name
  ,                                       !- Part of Total Floor Area
  ,                                       !- Design Specification Outdoor Air Object Name
  {e97cfc37-8e8a-4d35-ad3d-399458b16ca9}; !- Building Unit Name

OS:Surface,
  {9108151f-b279-4265-868e-b7a4a8c181e2}, !- Handle
  Surface 7,                              !- Name
  Floor,                                  !- Surface Type
  {e9c05ff0-bfe6-4d86-908f-10c7331a1c64}, !- Construction Name
  {033e627b-899c-4b72-bb6e-ca70bcb15134}, !- Space Name
  Surface,                                !- Outside Boundary Condition
  {a044af43-93a3-4cd2-a3e0-fdaf849c3faf}, !- Outside Boundary Condition Object
  NoSun,                                  !- Sun Exposure
  NoWind,                                 !- Wind Exposure
  ,                                       !- View Factor to Ground
  ,                                       !- Number of Vertices
  0, 0, -4.44089209850063e-016,           !- X,Y,Z Vertex 1 {m}
  0, 7.18420489685532, -4.44089209850063e-016, !- X,Y,Z Vertex 2 {m}
  12.9315688143396, 7.18420489685532, -4.44089209850063e-016, !- X,Y,Z Vertex 3 {m}
  12.9315688143396, 0, -4.44089209850063e-016; !- X,Y,Z Vertex 4 {m}

OS:Surface,
  {fe609126-d5bd-4098-8601-abab0638c04f}, !- Handle
  Surface 8,                              !- Name
  Wall,                                   !- Surface Type
  {3ee33239-030a-43e7-9ee0-99dec024c1c0}, !- Construction Name
  {033e627b-899c-4b72-bb6e-ca70bcb15134}, !- Space Name
  Outdoors,                               !- Outside Boundary Condition
  ,                                       !- Outside Boundary Condition Object
  SunExposed,                             !- Sun Exposure
  WindExposed,                            !- Wind Exposure
  ,                                       !- View Factor to Ground
  ,                                       !- Number of Vertices
  0, 7.18420489685532, 2.4384,            !- X,Y,Z Vertex 1 {m}
  0, 7.18420489685532, -4.44089209850063e-016, !- X,Y,Z Vertex 2 {m}
  0, 0, -4.44089209850063e-016,           !- X,Y,Z Vertex 3 {m}
  0, 0, 2.4384;                           !- X,Y,Z Vertex 4 {m}

OS:Surface,
  {938b7f86-bb2e-44a2-9c46-03a907cad339}, !- Handle
  Surface 9,                              !- Name
  Wall,                                   !- Surface Type