!- NOTE: Auto-generated from /test/osw_files/SFD_2000sqft_2story_FB_GRG_UA_3Beds_2Baths_Denver_WHTank.osw

OS:Version,
  {d451a17b-6ab1-4360-85a9-d120ab50069f}, !- Handle
  2.9.0;                                  !- Version Identifier

OS:SimulationControl,
  {6c05af15-5a54-439d-9425-c0aac2f0ec2a}, !- Handle
  ,                                       !- Do Zone Sizing Calculation
  ,                                       !- Do System Sizing Calculation
  ,                                       !- Do Plant Sizing Calculation
  No;                                     !- Run Simulation for Sizing Periods

OS:Timestep,
  {e2896316-4446-422c-bb30-fcff3046fade}, !- Handle
  6;                                      !- Number of Timesteps per Hour

OS:ShadowCalculation,
  {d931944a-204f-4039-ac03-f98391028def}, !- Handle
  20,                                     !- Calculation Frequency
  200;                                    !- Maximum Figures in Shadow Overlap Calculations

OS:SurfaceConvectionAlgorithm:Outside,
  {e4304f45-f6f2-49d8-8cef-233af0871888}, !- Handle
  DOE-2;                                  !- Algorithm

OS:SurfaceConvectionAlgorithm:Inside,
  {279743bb-f38c-489c-a516-42a5a2e8563c}, !- Handle
  TARP;                                   !- Algorithm

OS:ZoneCapacitanceMultiplier:ResearchSpecial,
  {2771c4cf-1d90-4a80-8a9e-248649ba32d0}, !- Handle
  ,                                       !- Temperature Capacity Multiplier
  15,                                     !- Humidity Capacity Multiplier
  ;                                       !- Carbon Dioxide Capacity Multiplier

OS:RunPeriod,
  {b2473748-8564-41db-901c-583f5e064af2}, !- Handle
  Run Period 1,                           !- Name
  1,                                      !- Begin Month
  1,                                      !- Begin Day of Month
  12,                                     !- End Month
  31,                                     !- End Day of Month
  ,                                       !- Use Weather File Holidays and Special Days
  ,                                       !- Use Weather File Daylight Saving Period
  ,                                       !- Apply Weekend Holiday Rule
  ,                                       !- Use Weather File Rain Indicators
  ,                                       !- Use Weather File Snow Indicators
  ;                                       !- Number of Times Runperiod to be Repeated

OS:YearDescription,
  {49052102-7807-49e2-acff-fc3265e715dd}, !- Handle
  2007,                                   !- Calendar Year
  ,                                       !- Day of Week for Start Day
  ;                                       !- Is Leap Year

OS:ThermalZone,
  {4ac8fc86-7d02-4d90-9490-0c4f092de4f6}, !- Handle
  living zone,                            !- Name
  ,                                       !- Multiplier
  ,                                       !- Ceiling Height {m}
  ,                                       !- Volume {m3}
  ,                                       !- Floor Area {m2}
  ,                                       !- Zone Inside Convection Algorithm
  ,                                       !- Zone Outside Convection Algorithm
  ,                                       !- Zone Conditioning Equipment List Name
  {417660b3-5119-44c2-97d9-9223348283d8}, !- Zone Air Inlet Port List
  {62de4555-8166-412d-8ec1-df547d800f71}, !- Zone Air Exhaust Port List
  {867f2e77-473a-4c23-990d-d0bb4dd26b2f}, !- Zone Air Node Name
  {156bd96a-7a75-4dfc-b47e-791b65a275dc}, !- Zone Return Air Port List
  ,                                       !- Primary Daylighting Control Name
  ,                                       !- Fraction of Zone Controlled by Primary Daylighting Control
  ,                                       !- Secondary Daylighting Control Name
  ,                                       !- Fraction of Zone Controlled by Secondary Daylighting Control
  ,                                       !- Illuminance Map Name
  ,                                       !- Group Rendering Name
  ,                                       !- Thermostat Name
  No;                                     !- Use Ideal Air Loads

OS:Node,
  {5637a346-81b5-45db-82da-d5b1f1c1d7f1}, !- Handle
  Node 1,                                 !- Name
  {867f2e77-473a-4c23-990d-d0bb4dd26b2f}, !- Inlet Port
  ;                                       !- Outlet Port

OS:Connection,
  {867f2e77-473a-4c23-990d-d0bb4dd26b2f}, !- Handle
  {05e5f04a-7218-401d-ad93-56c26584ea32}, !- Name
  {4ac8fc86-7d02-4d90-9490-0c4f092de4f6}, !- Source Object
  11,                                     !- Outlet Port
  {5637a346-81b5-45db-82da-d5b1f1c1d7f1}, !- Target Object
  2;                                      !- Inlet Port

OS:PortList,
  {417660b3-5119-44c2-97d9-9223348283d8}, !- Handle
  {91226146-5c3b-42eb-8888-c6a256febdb7}, !- Name
  {4ac8fc86-7d02-4d90-9490-0c4f092de4f6}; !- HVAC Component

OS:PortList,
  {62de4555-8166-412d-8ec1-df547d800f71}, !- Handle
  {467ea1bb-9dcd-461e-96a5-3422a7a073dc}, !- Name
  {4ac8fc86-7d02-4d90-9490-0c4f092de4f6}; !- HVAC Component

OS:PortList,
  {156bd96a-7a75-4dfc-b47e-791b65a275dc}, !- Handle
  {31d9e36f-1e9e-4d2f-9752-7486574e1663}, !- Name
  {4ac8fc86-7d02-4d90-9490-0c4f092de4f6}; !- HVAC Component

OS:Sizing:Zone,
  {5b968365-58e0-49bb-bc70-5fe3da7789d2}, !- Handle
  {4ac8fc86-7d02-4d90-9490-0c4f092de4f6}, !- Zone or ZoneList Name
  SupplyAirTemperature,                   !- Zone Cooling Design Supply Air Temperature Input Method
  14,                                     !- Zone Cooling Design Supply Air Temperature {C}
  11.11,                                  !- Zone Cooling Design Supply Air Temperature Difference {deltaC}
  SupplyAirTemperature,                   !- Zone Heating Design Supply Air Temperature Input Method
  40,                                     !- Zone Heating Design Supply Air Temperature {C}
  11.11,                                  !- Zone Heating Design Supply Air Temperature Difference {deltaC}
  0.0085,                                 !- Zone Cooling Design Supply Air Humidity Ratio {kg-H2O/kg-air}
  0.008,                                  !- Zone Heating Design Supply Air Humidity Ratio {kg-H2O/kg-air}
  ,                                       !- Zone Heating Sizing Factor
  ,                                       !- Zone Cooling Sizing Factor
  DesignDay,                              !- Cooling Design Air Flow Method
  ,                                       !- Cooling Design Air Flow Rate {m3/s}
  ,                                       !- Cooling Minimum Air Flow per Zone Floor Area {m3/s-m2}
  ,                                       !- Cooling Minimum Air Flow {m3/s}
  ,                                       !- Cooling Minimum Air Flow Fraction
  DesignDay,                              !- Heating Design Air Flow Method
  ,                                       !- Heating Design Air Flow Rate {m3/s}
  ,                                       !- Heating Maximum Air Flow per Zone Floor Area {m3/s-m2}
  ,                                       !- Heating Maximum Air Flow {m3/s}
  ,                                       !- Heating Maximum Air Flow Fraction
  ,                                       !- Design Zone Air Distribution Effectiveness in Cooling Mode
  ,                                       !- Design Zone Air Distribution Effectiveness in Heating Mode
  No,                                     !- Account for Dedicated Outdoor Air System
  NeutralSupplyAir,                       !- Dedicated Outdoor Air System Control Strategy
  autosize,                               !- Dedicated Outdoor Air Low Setpoint Temperature for Design {C}
  autosize;                               !- Dedicated Outdoor Air High Setpoint Temperature for Design {C}

OS:ZoneHVAC:EquipmentList,
  {868b893c-de17-42cd-a33e-0d2933e0d4b8}, !- Handle
  Zone HVAC Equipment List 1,             !- Name
  {4ac8fc86-7d02-4d90-9490-0c4f092de4f6}; !- Thermal Zone

OS:ThermalZone,
  {cce495a5-e265-48a2-9fe5-f11c6a4a2b4f}, !- Handle
  garage zone,                            !- Name
  ,                                       !- Multiplier
  ,                                       !- Ceiling Height {m}
  ,                                       !- Volume {m3}
  ,                                       !- Floor Area {m2}
  ,                                       !- Zone Inside Convection Algorithm
  ,                                       !- Zone Outside Convection Algorithm
  ,                                       !- Zone Conditioning Equipment List Name
  {243c3778-bf06-4438-b64a-da5ab129a1d2}, !- Zone Air Inlet Port List
  {1448256a-5851-4074-a9d4-fccfdad8768c}, !- Zone Air Exhaust Port List
  {ad7a6ab6-997f-4573-b8f0-8162112d2444}, !- Zone Air Node Name
  {29d57563-9d27-4719-b4fd-eddd55dceb9b}, !- Zone Return Air Port List
  ,                                       !- Primary Daylighting Control Name
  ,                                       !- Fraction of Zone Controlled by Primary Daylighting Control
  ,                                       !- Secondary Daylighting Control Name
  ,                                       !- Fraction of Zone Controlled by Secondary Daylighting Control
  ,                                       !- Illuminance Map Name
  ,                                       !- Group Rendering Name
  ,                                       !- Thermostat Name
  No;                                     !- Use Ideal Air Loads

OS:Node,
  {600a1663-49d2-4a99-8696-85ee6196a22a}, !- Handle
  Node 2,                                 !- Name
  {ad7a6ab6-997f-4573-b8f0-8162112d2444}, !- Inlet Port
  ;                                       !- Outlet Port

OS:Connection,
  {ad7a6ab6-997f-4573-b8f0-8162112d2444}, !- Handle
  {da4deaea-4335-4086-9c1a-8b935b7a3f22}, !- Name
  {cce495a5-e265-48a2-9fe5-f11c6a4a2b4f}, !- Source Object
  11,                                     !- Outlet Port
  {600a1663-49d2-4a99-8696-85ee6196a22a}, !- Target Object
  2;                                      !- Inlet Port

OS:PortList,
  {243c3778-bf06-4438-b64a-da5ab129a1d2}, !- Handle
  {a12e27c3-b4b0-4446-acf0-e71d312cfef2}, !- Name
  {cce495a5-e265-48a2-9fe5-f11c6a4a2b4f}; !- HVAC Component

OS:PortList,
  {1448256a-5851-4074-a9d4-fccfdad8768c}, !- Handle
  {d5704fb2-340b-43bf-9f5e-79b98a1fba8d}, !- Name
  {cce495a5-e265-48a2-9fe5-f11c6a4a2b4f}; !- HVAC Component

OS:PortList,
  {29d57563-9d27-4719-b4fd-eddd55dceb9b}, !- Handle
  {7da9c11c-ddd2-4a52-9833-9092092d125d}, !- Name
  {cce495a5-e265-48a2-9fe5-f11c6a4a2b4f}; !- HVAC Component

OS:Sizing:Zone,
  {fec1694b-772d-4e1f-b40a-0690e7aa3206}, !- Handle
  {cce495a5-e265-48a2-9fe5-f11c6a4a2b4f}, !- Zone or ZoneList Name
  SupplyAirTemperature,                   !- Zone Cooling Design Supply Air Temperature Input Method
  14,                                     !- Zone Cooling Design Supply Air Temperature {C}
  11.11,                                  !- Zone Cooling Design Supply Air Temperature Difference {deltaC}
  SupplyAirTemperature,                   !- Zone Heating Design Supply Air Temperature Input Method
  40,                                     !- Zone Heating Design Supply Air Temperature {C}
  11.11,                                  !- Zone Heating Design Supply Air Temperature Difference {deltaC}
  0.0085,                                 !- Zone Cooling Design Supply Air Humidity Ratio {kg-H2O/kg-air}
  0.008,                                  !- Zone Heating Design Supply Air Humidity Ratio {kg-H2O/kg-air}
  ,                                       !- Zone Heating Sizing Factor
  ,                                       !- Zone Cooling Sizing Factor
  DesignDay,                              !- Cooling Design Air Flow Method
  ,                                       !- Cooling Design Air Flow Rate {m3/s}
  ,                                       !- Cooling Minimum Air Flow per Zone Floor Area {m3/s-m2}
  ,                                       !- Cooling Minimum Air Flow {m3/s}
  ,                                       !- Cooling Minimum Air Flow Fraction
  DesignDay,                              !- Heating Design Air Flow Method
  ,                                       !- Heating Design Air Flow Rate {m3/s}
  ,                                       !- Heating Maximum Air Flow per Zone Floor Area {m3/s-m2}
  ,                                       !- Heating Maximum Air Flow {m3/s}
  ,                                       !- Heating Maximum Air Flow Fraction
  ,                                       !- Design Zone Air Distribution Effectiveness in Cooling Mode
  ,                                       !- Design Zone Air Distribution Effectiveness in Heating Mode
  No,                                     !- Account for Dedicated Outdoor Air System
  NeutralSupplyAir,                       !- Dedicated Outdoor Air System Control Strategy
  autosize,                               !- Dedicated Outdoor Air Low Setpoint Temperature for Design {C}
  autosize;                               !- Dedicated Outdoor Air High Setpoint Temperature for Design {C}

OS:ZoneHVAC:EquipmentList,
  {9f5df7fe-3a59-4f97-a9cf-f44abb43dd2c}, !- Handle
  Zone HVAC Equipment List 2,             !- Name
  {cce495a5-e265-48a2-9fe5-f11c6a4a2b4f}; !- Thermal Zone

OS:Space,
  {111f3cca-1db7-4486-ba0c-c7e7718df9ee}, !- Handle
  garage space,                           !- Name
  {2ecd9b44-bbe5-4398-a648-9ff806e3e657}, !- Space Type Name
  ,                                       !- Default Construction Set Name
  ,                                       !- Default Schedule Set Name
  -0,                                     !- Direction of Relative North {deg}
  0,                                      !- X Origin {m}
  0,                                      !- Y Origin {m}
  0,                                      !- Z Origin {m}
  ,                                       !- Building Story Name
  {cce495a5-e265-48a2-9fe5-f11c6a4a2b4f}; !- Thermal Zone Name

OS:Surface,
  {03be667e-5273-4e76-a826-7e443b500faf}, !- Handle
  Surface 1,                              !- Name
  Floor,                                  !- Surface Type
  ,                                       !- Construction Name
  {111f3cca-1db7-4486-ba0c-c7e7718df9ee}, !- Space Name
  Foundation,                             !- Outside Boundary Condition
  ,                                       !- Outside Boundary Condition Object
  NoSun,                                  !- Sun Exposure
  NoWind,                                 !- Wind Exposure
  ,                                       !- View Factor to Ground
  ,                                       !- Number of Vertices
  5.57695129776527, -3.048, 0,            !- X,Y,Z Vertex 1 {m}
  5.57695129776527, 3.048, 0,             !- X,Y,Z Vertex 2 {m}
  11.6729512977653, 3.048, 0,             !- X,Y,Z Vertex 3 {m}
  11.6729512977653, -3.048, 0;            !- X,Y,Z Vertex 4 {m}

OS:Surface,
  {af753de7-5774-496a-99f0-92ac88f4c824}, !- Handle
  Surface 2,                              !- Name
  Wall,                                   !- Surface Type
  ,                                       !- Construction Name
  {111f3cca-1db7-4486-ba0c-c7e7718df9ee}, !- Space Name
  Surface,                                !- Outside Boundary Condition
  {03e060ef-04d4-4bf8-85c9-7e8d9af20154}, !- Outside Boundary Condition Object
  NoSun,                                  !- Sun Exposure
  NoWind,                                 !- Wind Exposure
  ,                                       !- View Factor to Ground
  ,                                       !- Number of Vertices
  5.57695129776527, 3.048, 2.4384,        !- X,Y,Z Vertex 1 {m}
  5.57695129776527, 3.048, 0,             !- X,Y,Z Vertex 2 {m}
  5.57695129776527, 0, 0,                 !- X,Y,Z Vertex 3 {m}
  5.57695129776527, 0, 2.4384;            !- X,Y,Z Vertex 4 {m}

OS:Surface,
  {ff50d888-2609-4c6c-a449-266c568af413}, !- Handle
  Surface 3,                              !- Name
  Wall,                                   !- Surface Type
  ,                                       !- Construction Name
  {111f3cca-1db7-4486-ba0c-c7e7718df9ee}, !- Space Name
  Surface,                                !- Outside Boundary Condition
  {7d0430dc-3899-4f66-a9a9-ea4e90e5ad2a}, !- Outside Boundary Condition Object
  NoSun,                                  !- Sun Exposure
  NoWind,                                 !- Wind Exposure
  ,                                       !- View Factor to Ground
  ,                                       !- Number of Vertices
  11.6729512977653, 3.048, 2.4384,        !- X,Y,Z Vertex 1 {m}
  11.6729512977653, 3.048, 0,             !- X,Y,Z Vertex 2 {m}
  5.57695129776527, 3.048, 0,             !- X,Y,Z Vertex 3 {m}
  5.57695129776527, 3.048, 2.4384;        !- X,Y,Z Vertex 4 {m}

OS:Surface,
  {cfe22a96-4a2f-4198-8c87-827d0186e4eb}, !- Handle
  Surface 4,                              !- Name
  Wall,                                   !- Surface Type
  ,                                       !- Construction Name
  {111f3cca-1db7-4486-ba0c-c7e7718df9ee}, !- Space Name
  Outdoors,                               !- Outside Boundary Condition
  ,                                       !- Outside Boundary Condition Object
  SunExposed,                             !- Sun Exposure
  WindExposed,                            !- Wind Exposure
  ,                                       !- View Factor to Ground
  ,                                       !- Number of Vertices
  11.6729512977653, -3.048, 2.4384,       !- X,Y,Z Vertex 1 {m}
  11.6729512977653, -3.048, 0,            !- X,Y,Z Vertex 2 {m}
  11.6729512977653, 3.048, 0,             !- X,Y,Z Vertex 3 {m}
  11.6729512977653, 3.048, 2.4384;        !- X,Y,Z Vertex 4 {m}

OS:Surface,
  {908cc2b9-d994-4e3f-afb7-0d85593dcddd}, !- Handle
  Surface 5,                              !- Name
  Wall,                                   !- Surface Type
  ,                                       !- Construction Name
  {111f3cca-1db7-4486-ba0c-c7e7718df9ee}, !- Space Name
  Outdoors,                               !- Outside Boundary Condition
  ,                                       !- Outside Boundary Condition Object
  SunExposed,                             !- Sun Exposure
  WindExposed,                            !- Wind Exposure
  ,                                       !- View Factor to Ground
  ,                                       !- Number of Vertices
  5.57695129776527, -3.048, 2.4384,       !- X,Y,Z Vertex 1 {m}
  5.57695129776527, -3.048, 0,            !- X,Y,Z Vertex 2 {m}
  11.6729512977653, -3.048, 0,            !- X,Y,Z Vertex 3 {m}
  11.6729512977653, -3.048, 2.4384;       !- X,Y,Z Vertex 4 {m}

OS:Surface,
  {f70c5a5c-f5b6-4dea-b297-a6399d2c4655}, !- Handle
  Surface 6,                              !- Name
  RoofCeiling,                            !- Surface Type
  ,                                       !- Construction Name
  {111f3cca-1db7-4486-ba0c-c7e7718df9ee}, !- Space Name
  Surface,                                !- Outside Boundary Condition
  {d67e03d8-3d0f-43ff-b9b4-7282f8b6a3f1}, !- Outside Boundary Condition Object
  NoSun,                                  !- Sun Exposure
  NoWind,                                 !- Wind Exposure
  ,                                       !- View Factor to Ground
  ,                                       !- Number of Vertices
  11.6729512977653, -3.048, 2.4384,       !- X,Y,Z Vertex 1 {m}
  11.6729512977653, 3.048, 2.4384,        !- X,Y,Z Vertex 2 {m}
  5.57695129776527, 3.048, 2.4384,        !- X,Y,Z Vertex 3 {m}
  5.57695129776527, -3.048, 2.4384;       !- X,Y,Z Vertex 4 {m}

OS:SpaceType,
  {2ecd9b44-bbe5-4398-a648-9ff806e3e657}, !- Handle
  Space Type 1,                           !- Name
  ,                                       !- Default Construction Set Name
  ,                                       !- Default Schedule Set Name
  ,                                       !- Group Rendering Name
  ,                                       !- Design Specification Outdoor Air Object Name
  ,                                       !- Standards Template
  ,                                       !- Standards Building Type
  garage;                                 !- Standards Space Type

OS:Space,
  {d8bcc585-52ad-4601-bb34-e40212004495}, !- Handle
  living space,                           !- Name
  {f31b73cd-6416-4682-97e3-b1007b75b651}, !- Space Type Name
  ,                                       !- Default Construction Set Name
  ,                                       !- Default Schedule Set Name
  -0,                                     !- Direction of Relative North {deg}
  0,                                      !- X Origin {m}
  0,                                      !- Y Origin {m}
  0,                                      !- Z Origin {m}
  ,                                       !- Building Story Name
  {4ac8fc86-7d02-4d90-9490-0c4f092de4f6}, !- Thermal Zone Name
  ,                                       !- Part of Total Floor Area
  ,                                       !- Design Specification Outdoor Air Object Name
  {373b829d-f421-4302-9b4b-c19071c79b72}; !- Building Unit Name

OS:Surface,
  {f9bf6ce4-b458-4949-8e0e-859bf744aaa8}, !- Handle
  Surface 7,                              !- Name
  Floor,                                  !- Surface Type
  ,                                       !- Construction Name
  {d8bcc585-52ad-4601-bb34-e40212004495}, !- Space Name
  Surface,                                !- Outside Boundary Condition
  {7aceceb4-a069-4a4f-b100-2c084c7aa7ef}, !- Outside Boundary Condition Object
  NoSun,                                  !- Sun Exposure
  NoWind,                                 !- Wind Exposure
  ,                                       !- View Factor to Ground
  ,                                       !- Number of Vertices
  0, 0, 0,                                !- X,Y,Z Vertex 1 {m}
  0, 5.83647564888264, 0,                 !- X,Y,Z Vertex 2 {m}
  11.6729512977653, 5.83647564888264, 0,  !- X,Y,Z Vertex 3 {m}
  11.6729512977653, 3.048, 0,             !- X,Y,Z Vertex 4 {m}
  5.57695129776527, 3.048, 0,             !- X,Y,Z Vertex 5 {m}
  5.57695129776527, 0, 0;                 !- X,Y,Z Vertex 6 {m}

OS:Surface,
  {6991532c-dcd6-4057-8045-3645c5845dbe}, !- Handle
  Surface 8,                              !- Name
  Wall,                                   !- Surface Type
  ,                                       !- Construction Name
  {d8bcc585-52ad-4601-bb34-e40212004495}, !- Space Name
  Outdoors,                               !- Outside Boundary Condition
  ,                                       !- Outside Boundary Condition Object
  SunExposed,                             !- Sun Exposure
  WindExposed,                            !- Wind Exposure
  ,                                       !- View Factor to Ground
  ,                                       !- Number of Vertices
  0, 5.83647564888264, 2.4384,            !- X,Y,Z Vertex 1 {m}
  0, 5.83647564888264, 0,                 !- X,Y,Z Vertex 2 {m}
  0, 0, 0,                                !- X,Y,Z Vertex 3 {m}
  0, 0, 2.4384;                           !- X,Y,Z Vertex 4 {m}

OS:Surface,
  {d88c8549-00e4-47f7-a8ce-e4049a1a6ff9}, !- Handle
  Surface 9,                              !- Name
  Wall,                                   !- Surface Type
  ,                                       !- Construction Name
  {d8bcc585-52ad-4601-bb34-e40212004495}, !- Space Name
  Outdoors,                               !- Outside Boundary Condition
  ,                                       !- Outside Boundary Condition Object
  SunExposed,                             !- Sun Exposure
  WindExposed,                            !- Wind Exposure
  ,                                       !- View Factor to Ground
  ,                                       !- Number of Vertices
  11.6729512977653, 5.83647564888264, 2.4384, !- X,Y,Z Vertex 1 {m}
  11.6729512977653, 5.83647564888264, 0,  !- X,Y,Z Vertex 2 {m}
  0, 5.83647564888264, 0,                 !- X,Y,Z Vertex 3 {m}
  0, 5.83647564888264, 2.4384;            !- X,Y,Z Vertex 4 {m}

OS:Surface,
  {080a6699-f3db-4e67-8e3d-cae6731ff049}, !- Handle
  Surface 10,                             !- Name
  Wall,                                   !- Surface Type
  ,                                       !- Construction Name
  {d8bcc585-52ad-4601-bb34-e40212004495}, !- Space Name
  Outdoors,                               !- Outside Boundary Condition
  ,                                       !- Outside Boundary Condition Object
  SunExposed,                             !- Sun Exposure
  WindExposed,                            !- Wind Exposure
  ,                                       !- View Factor to Ground
  ,                                       !- Number of Vertices
  11.6729512977653, 3.048, 2.4384,        !- X,Y,Z Vertex 1 {m}
  11.6729512977653, 3.048, 0,             !- X,Y,Z Vertex 2 {m}
  11.6729512977653, 5.83647564888264, 0,  !- X,Y,Z Vertex 3 {m}
  11.6729512977653, 5.83647564888264, 2.4384; !- X,Y,Z Vertex 4 {m}

OS:Surface,
  {7d0430dc-3899-4f66-a9a9-ea4e90e5ad2a}, !- Handle
  Surface 11,                             !- Name
  Wall,                                   !- Surface Type
  ,                                       !- Construction Name
  {d8bcc585-52ad-4601-bb34-e40212004495}, !- Space Name
  Surface,                                !- Outside Boundary Condition
  {ff50d888-2609-4c6c-a449-266c568af413}, !- Outside Boundary Condition Object
  NoSun,                                  !- Sun Exposure
  NoWind,                                 !- Wind Exposure
  ,                                       !- View Factor to Ground
  ,                                       !- Number of Vertices
  5.57695129776527, 3.048, 2.4384,        !- X,Y,Z Vertex 1 {m}
  5.57695129776527, 3.048, 0,             !- X,Y,Z Vertex 2 {m}
  11.6729512977653, 3.048, 0,             !- X,Y,Z Vertex 3 {m}
  11.6729512977653, 3.048, 2.4384;        !- X,Y,Z Vertex 4 {m}

OS:Surface,
  {03e060ef-04d4-4bf8-85c9-7e8d9af20154}, !- Handle
  Surface 12,                             !- Name
  Wall,                                   !- Surface Type
  ,                                       !- Construction Name
  {d8bcc585-52ad-4601-bb34-e40212004495}, !- Space Name
  Surface,                                !- Outside Boundary Condition
  {af753de7-5774-496a-99f0-92ac88f4c824}, !- Outside Boundary Condition Object
  NoSun,                                  !- Sun Exposure
  NoWind,                                 !- Wind Exposure
  ,                                       !- View Factor to Ground
  ,                                       !- Number of Vertices
  5.57695129776527, 0, 2.4384,            !- X,Y,Z Vertex 1 {m}
  5.57695129776527, 0, 0,                 !- X,Y,Z Vertex 2 {m}
  5.57695129776527, 3.048, 0,             !- X,Y,Z Vertex 3 {m}
  5.57695129776527, 3.048, 2.4384;        !- X,Y,Z Vertex 4 {m}

OS:Surface,
  {4016dfe7-82fa-43f2-9045-1134c21af63e}, !- Handle
  Surface 13,                             !- Name
  Wall,                                   !- Surface Type
  ,                                       !- Construction Name
  {d8bcc585-52ad-4601-bb34-e40212004495}, !- Space Name
  Outdoors,                               !- Outside Boundary Condition
  ,                                       !- Outside Boundary Condition Object
  SunExposed,                             !- Sun Exposure
  WindExposed,                            !- Wind Exposure
  ,                                       !- View Factor to Ground
  ,                                       !- Number of Vertices
  0, 0, 2.4384,                           !- X,Y,Z Vertex 1 {m}
  0, 0, 0,                                !- X,Y,Z Vertex 2 {m}
  5.57695129776527, 0, 0,                 !- X,Y,Z Vertex 3 {m}
  5.57695129776527, 0, 2.4384;            !- X,Y,Z Vertex 4 {m}

OS:Surface,
  {c38ad57f-e5bc-4f9e-8860-27e38a33c77f}, !- Handle
  Surface 14,                             !- Name
  RoofCeiling,                            !- Surface Type
  ,                                       !- Construction Name
  {d8bcc585-52ad-4601-bb34-e40212004495}, !- Space Name
  Surface,                                !- Outside Boundary Condition
  {a2f1eac9-ef77-41a0-b16c-0a5e3e3e4cf0}, !- Outside Boundary Condition Object
  NoSun,                                  !- Sun Exposure
  NoWind,                                 !- Wind Exposure
  ,                                       !- View Factor to Ground
  ,                                       !- Number of Vertices
  5.57695129776527, 0, 2.4384,            !- X,Y,Z Vertex 1 {m}
  5.57695129776527, 3.048, 2.4384,        !- X,Y,Z Vertex 2 {m}
  11.6729512977653, 3.048, 2.4384,        !- X,Y,Z Vertex 3 {m}
  11.6729512977653, 5.83647564888264, 2.4384, !- X,Y,Z Vertex 4 {m}
  0, 5.83647564888264, 2.4384,            !- X,Y,Z Vertex 5 {m}
  0, 0, 2.4384;                           !- X,Y,Z Vertex 6 {m}

OS:SpaceType,
  {f31b73cd-6416-4682-97e3-b1007b75b651}, !- Handle
  Space Type 2,                           !- Name
  ,                                       !- Default Construction Set Name
  ,                                       !- Default Schedule Set Name
  ,                                       !- Group Rendering Name
  ,                                       !- Design Specification Outdoor Air Object Name
  ,                                       !- Standards Template
  ,                                       !- Standards Building Type
  living;                                 !- Standards Space Type

OS:Space,
  {d00b8a69-01cd-4582-a682-b0660993ece4}, !- Handle
  living space|story 2,                   !- Name
  {f31b73cd-6416-4682-97e3-b1007b75b651}, !- Space Type Name
  ,                                       !- Default Construction Set Name