!- NOTE: Auto-generated from /test/osw_files/SFD_2000sqft_2story_SL_GRG_FR_3Beds_2Baths_Denver_Furnace_CentralAC.osw

OS:Version,
  {6649072a-bf9e-42e2-9537-2d7fa75b163b}, !- Handle
  2.8.1;                                  !- Version Identifier

OS:SimulationControl,
  {e626ff0d-3fe2-4324-8fd2-4453d2c8f52c}, !- Handle
  ,                                       !- Do Zone Sizing Calculation
  ,                                       !- Do System Sizing Calculation
  ,                                       !- Do Plant Sizing Calculation
  No;                                     !- Run Simulation for Sizing Periods

OS:Timestep,
  {2a048e9e-a980-4621-b76b-04121dcf5d3e}, !- Handle
  6;                                      !- Number of Timesteps per Hour

OS:ShadowCalculation,
  {0fb27b5b-3a6b-4dac-a010-af7d33ff882b}, !- Handle
  20,                                     !- Calculation Frequency
  200;                                    !- Maximum Figures in Shadow Overlap Calculations

OS:SurfaceConvectionAlgorithm:Outside,
  {1724ebe8-3035-463e-8085-11eca5ce0eb8}, !- Handle
  DOE-2;                                  !- Algorithm

OS:SurfaceConvectionAlgorithm:Inside,
  {7c975ab2-26b9-4777-b5fd-ef4394054743}, !- Handle
  TARP;                                   !- Algorithm

OS:ZoneCapacitanceMultiplier:ResearchSpecial,
  {a504e630-b142-4751-a18d-e2526025b3ca}, !- Handle
  ,                                       !- Temperature Capacity Multiplier
  15,                                     !- Humidity Capacity Multiplier
  ;                                       !- Carbon Dioxide Capacity Multiplier

OS:RunPeriod,
  {c3aa5574-560f-4835-90a8-71c5f429c29d}, !- Handle
  Run Period 1,                           !- Name
  1,                                      !- Begin Month
  1,                                      !- Begin Day of Month
  12,                                     !- End Month
  31,                                     !- End Day of Month
  ,                                       !- Use Weather File Holidays and Special Days
  ,                                       !- Use Weather File Daylight Saving Period
  ,                                       !- Apply Weekend Holiday Rule
  ,                                       !- Use Weather File Rain Indicators
  ,                                       !- Use Weather File Snow Indicators
  ;                                       !- Number of Times Runperiod to be Repeated

OS:YearDescription,
  {e4ef981f-1694-4aa6-8aab-77b1bb425775}, !- Handle
  2007,                                   !- Calendar Year
  ,                                       !- Day of Week for Start Day
  ;                                       !- Is Leap Year

OS:ThermalZone,
  {c766c5d4-2179-4fcb-ab19-40953f769fcd}, !- Handle
  living zone,                            !- Name
  ,                                       !- Multiplier
  ,                                       !- Ceiling Height {m}
  ,                                       !- Volume {m3}
  ,                                       !- Floor Area {m2}
  ,                                       !- Zone Inside Convection Algorithm
  ,                                       !- Zone Outside Convection Algorithm
  ,                                       !- Zone Conditioning Equipment List Name
  {e07df05f-9ce2-4eb5-b28c-3bbb44604700}, !- Zone Air Inlet Port List
  {c1d96a28-4952-4bf2-9074-2e6ad266fedf}, !- Zone Air Exhaust Port List
  {b1d889da-61d9-4867-93a9-c3abfb8805d0}, !- Zone Air Node Name
  {93cbe33c-41bd-42e1-99b0-45a1c82679cf}, !- Zone Return Air Port List
  ,                                       !- Primary Daylighting Control Name
  ,                                       !- Fraction of Zone Controlled by Primary Daylighting Control
  ,                                       !- Secondary Daylighting Control Name
  ,                                       !- Fraction of Zone Controlled by Secondary Daylighting Control
  ,                                       !- Illuminance Map Name
  ,                                       !- Group Rendering Name
  {a6031f88-aa54-4136-9743-383193f152ff}, !- Thermostat Name
  No;                                     !- Use Ideal Air Loads

OS:Node,
  {8eb6f71d-555e-44be-955d-655dea5bfeba}, !- Handle
  Node 1,                                 !- Name
  {b1d889da-61d9-4867-93a9-c3abfb8805d0}, !- Inlet Port
  ;                                       !- Outlet Port

OS:Connection,
  {b1d889da-61d9-4867-93a9-c3abfb8805d0}, !- Handle
  {ef291188-176c-47af-95ca-e4eca75cd6a4}, !- Name
  {c766c5d4-2179-4fcb-ab19-40953f769fcd}, !- Source Object
  11,                                     !- Outlet Port
  {8eb6f71d-555e-44be-955d-655dea5bfeba}, !- Target Object
  2;                                      !- Inlet Port

OS:PortList,
  {e07df05f-9ce2-4eb5-b28c-3bbb44604700}, !- Handle
  {71327af7-b75c-4ffd-bd1d-533219625ded}, !- Name
  {c766c5d4-2179-4fcb-ab19-40953f769fcd}, !- HVAC Component
  {17cca0b0-2d11-4794-aae9-11d90d29d388}, !- Port 1
  {6f2496cf-6c18-4f8c-bf01-d5618c37a149}; !- Port 2

OS:PortList,
  {c1d96a28-4952-4bf2-9074-2e6ad266fedf}, !- Handle
  {25c18d02-1cac-4ab3-8bdc-48685c7f44e7}, !- Name
  {c766c5d4-2179-4fcb-ab19-40953f769fcd}; !- HVAC Component

OS:PortList,
  {93cbe33c-41bd-42e1-99b0-45a1c82679cf}, !- Handle
  {ef988180-7d39-4379-9f28-b0d223b65cfd}, !- Name
  {c766c5d4-2179-4fcb-ab19-40953f769fcd}, !- HVAC Component
  {a95f4763-b46c-46b4-93db-e30fcd398ac7}, !- Port 1
  {37f66ef6-bbff-438e-8687-887c02b83e35}; !- Port 2

OS:Sizing:Zone,
  {562fb705-b19c-4aa7-a162-8f2dd1c5ecfb}, !- Handle
  {c766c5d4-2179-4fcb-ab19-40953f769fcd}, !- Zone or ZoneList Name
  SupplyAirTemperature,                   !- Zone Cooling Design Supply Air Temperature Input Method
  14,                                     !- Zone Cooling Design Supply Air Temperature {C}
  11.11,                                  !- Zone Cooling Design Supply Air Temperature Difference {deltaC}
  SupplyAirTemperature,                   !- Zone Heating Design Supply Air Temperature Input Method
  40,                                     !- Zone Heating Design Supply Air Temperature {C}
  11.11,                                  !- Zone Heating Design Supply Air Temperature Difference {deltaC}
  0.0085,                                 !- Zone Cooling Design Supply Air Humidity Ratio {kg-H2O/kg-air}
  0.008,                                  !- Zone Heating Design Supply Air Humidity Ratio {kg-H2O/kg-air}
  ,                                       !- Zone Heating Sizing Factor
  ,                                       !- Zone Cooling Sizing Factor
  DesignDay,                              !- Cooling Design Air Flow Method
  ,                                       !- Cooling Design Air Flow Rate {m3/s}
  ,                                       !- Cooling Minimum Air Flow per Zone Floor Area {m3/s-m2}
  ,                                       !- Cooling Minimum Air Flow {m3/s}
  ,                                       !- Cooling Minimum Air Flow Fraction
  DesignDay,                              !- Heating Design Air Flow Method
  ,                                       !- Heating Design Air Flow Rate {m3/s}
  ,                                       !- Heating Maximum Air Flow per Zone Floor Area {m3/s-m2}
  ,                                       !- Heating Maximum Air Flow {m3/s}
  ,                                       !- Heating Maximum Air Flow Fraction
  ,                                       !- Design Zone Air Distribution Effectiveness in Cooling Mode
  ,                                       !- Design Zone Air Distribution Effectiveness in Heating Mode
  No,                                     !- Account for Dedicated Outdoor Air System
  NeutralSupplyAir,                       !- Dedicated Outdoor Air System Control Strategy
  autosize,                               !- Dedicated Outdoor Air Low Setpoint Temperature for Design {C}
  autosize;                               !- Dedicated Outdoor Air High Setpoint Temperature for Design {C}

OS:ZoneHVAC:EquipmentList,
  {9b15a827-153e-4285-887e-e3db43ecf0a6}, !- Handle
  Zone HVAC Equipment List 1,             !- Name
  {c766c5d4-2179-4fcb-ab19-40953f769fcd}, !- Thermal Zone
  SequentialLoad,                         !- Load Distribution Scheme
  {6833ae68-2847-4619-b2bb-9a2e2600ccaf}, !- Zone Equipment 1
  1,                                      !- Zone Equipment Cooling Sequence 1
  1,                                      !- Zone Equipment Heating or No-Load Sequence 1
  ,                                       !- Zone Equipment Sequential Cooling Fraction 1
  ,                                       !- Zone Equipment Sequential Heating Fraction 1
  {ef9a6ae7-16ae-40fd-b393-9afbe44ff1f3}, !- Zone Equipment 2
  2,                                      !- Zone Equipment Cooling Sequence 2
  2,                                      !- Zone Equipment Heating or No-Load Sequence 2
  ,                                       !- Zone Equipment Sequential Cooling Fraction 2
  ;                                       !- Zone Equipment Sequential Heating Fraction 2

OS:ThermalZone,
  {93df6f1b-724a-4bff-88cf-1f0396ec45eb}, !- Handle
  garage zone,                            !- Name
  ,                                       !- Multiplier
  ,                                       !- Ceiling Height {m}
  ,                                       !- Volume {m3}
  ,                                       !- Floor Area {m2}
  ,                                       !- Zone Inside Convection Algorithm
  ,                                       !- Zone Outside Convection Algorithm
  ,                                       !- Zone Conditioning Equipment List Name
  {3dd9cd88-56dd-4822-8bb6-f83af857cd7a}, !- Zone Air Inlet Port List
  {580595a9-2250-4af2-9c61-3855966e66b2}, !- Zone Air Exhaust Port List
  {3a373a14-1179-4bfb-8e35-59a43c34d89a}, !- Zone Air Node Name
  {be2f6cc5-36f4-4097-9c6f-be0ad1d648de}, !- Zone Return Air Port List
  ,                                       !- Primary Daylighting Control Name
  ,                                       !- Fraction of Zone Controlled by Primary Daylighting Control
  ,                                       !- Secondary Daylighting Control Name
  ,                                       !- Fraction of Zone Controlled by Secondary Daylighting Control
  ,                                       !- Illuminance Map Name
  ,                                       !- Group Rendering Name
  ,                                       !- Thermostat Name
  No;                                     !- Use Ideal Air Loads

OS:Node,
  {a5c3e6db-76b4-4a11-af19-d0d7970ae8b5}, !- Handle
  Node 2,                                 !- Name
  {3a373a14-1179-4bfb-8e35-59a43c34d89a}, !- Inlet Port
  ;                                       !- Outlet Port

OS:Connection,
  {3a373a14-1179-4bfb-8e35-59a43c34d89a}, !- Handle
  {0e9f33b6-554f-4b07-aa85-6e29ac1a5e59}, !- Name
  {93df6f1b-724a-4bff-88cf-1f0396ec45eb}, !- Source Object
  11,                                     !- Outlet Port
  {a5c3e6db-76b4-4a11-af19-d0d7970ae8b5}, !- Target Object
  2;                                      !- Inlet Port

OS:PortList,
  {3dd9cd88-56dd-4822-8bb6-f83af857cd7a}, !- Handle
  {0a041555-0434-47ab-9e09-cbba37b0b3e6}, !- Name
  {93df6f1b-724a-4bff-88cf-1f0396ec45eb}; !- HVAC Component

OS:PortList,
  {580595a9-2250-4af2-9c61-3855966e66b2}, !- Handle
  {2fe5db28-430e-4a86-8ce2-0e92563653f0}, !- Name
  {93df6f1b-724a-4bff-88cf-1f0396ec45eb}; !- HVAC Component

OS:PortList,
  {be2f6cc5-36f4-4097-9c6f-be0ad1d648de}, !- Handle
  {e0a7f4de-2aad-4431-bd1c-1dd92c211d20}, !- Name
  {93df6f1b-724a-4bff-88cf-1f0396ec45eb}; !- HVAC Component

OS:Sizing:Zone,
  {9d47e711-53c6-4c57-96bf-6d2990401f58}, !- Handle
  {93df6f1b-724a-4bff-88cf-1f0396ec45eb}, !- Zone or ZoneList Name
  SupplyAirTemperature,                   !- Zone Cooling Design Supply Air Temperature Input Method
  14,                                     !- Zone Cooling Design Supply Air Temperature {C}
  11.11,                                  !- Zone Cooling Design Supply Air Temperature Difference {deltaC}
  SupplyAirTemperature,                   !- Zone Heating Design Supply Air Temperature Input Method
  40,                                     !- Zone Heating Design Supply Air Temperature {C}
  11.11,                                  !- Zone Heating Design Supply Air Temperature Difference {deltaC}
  0.0085,                                 !- Zone Cooling Design Supply Air Humidity Ratio {kg-H2O/kg-air}
  0.008,                                  !- Zone Heating Design Supply Air Humidity Ratio {kg-H2O/kg-air}
  ,                                       !- Zone Heating Sizing Factor
  ,                                       !- Zone Cooling Sizing Factor
  DesignDay,                              !- Cooling Design Air Flow Method
  ,                                       !- Cooling Design Air Flow Rate {m3/s}
  ,                                       !- Cooling Minimum Air Flow per Zone Floor Area {m3/s-m2}
  ,                                       !- Cooling Minimum Air Flow {m3/s}
  ,                                       !- Cooling Minimum Air Flow Fraction
  DesignDay,                              !- Heating Design Air Flow Method
  ,                                       !- Heating Design Air Flow Rate {m3/s}
  ,                                       !- Heating Maximum Air Flow per Zone Floor Area {m3/s-m2}
  ,                                       !- Heating Maximum Air Flow {m3/s}
  ,                                       !- Heating Maximum Air Flow Fraction
  ,                                       !- Design Zone Air Distribution Effectiveness in Cooling Mode
  ,                                       !- Design Zone Air Distribution Effectiveness in Heating Mode
  No,                                     !- Account for Dedicated Outdoor Air System
  NeutralSupplyAir,                       !- Dedicated Outdoor Air System Control Strategy
  autosize,                               !- Dedicated Outdoor Air Low Setpoint Temperature for Design {C}
  autosize;                               !- Dedicated Outdoor Air High Setpoint Temperature for Design {C}

OS:ZoneHVAC:EquipmentList,
  {8b4c0455-704c-4e32-951d-97ba384f683a}, !- Handle
  Zone HVAC Equipment List 2,             !- Name
  {93df6f1b-724a-4bff-88cf-1f0396ec45eb}; !- Thermal Zone

OS:Space,
  {3e973765-ae32-4bcb-8b3f-0e47ce846d39}, !- Handle
  garage space,                           !- Name
  {e1b504f7-5d75-4598-98bc-4304bb57bd2f}, !- Space Type Name
  ,                                       !- Default Construction Set Name
  ,                                       !- Default Schedule Set Name
  -0,                                     !- Direction of Relative North {deg}
  0,                                      !- X Origin {m}
  0,                                      !- Y Origin {m}
  0,                                      !- Z Origin {m}
  ,                                       !- Building Story Name
  {93df6f1b-724a-4bff-88cf-1f0396ec45eb}; !- Thermal Zone Name

OS:Surface,
  {8338f611-bdca-445e-bea3-545a0200dda8}, !- Handle
  Surface 1,                              !- Name
  Floor,                                  !- Surface Type
  ,                                       !- Construction Name
  {3e973765-ae32-4bcb-8b3f-0e47ce846d39}, !- Space Name
  Foundation,                             !- Outside Boundary Condition
  ,                                       !- Outside Boundary Condition Object
  NoSun,                                  !- Sun Exposure
  NoWind,                                 !- Wind Exposure
  ,                                       !- View Factor to Ground
  ,                                       !- Number of Vertices
  7.1330661888875, -3.048, 0,             !- X,Y,Z Vertex 1 {m}
  7.1330661888875, 3.048, 0,              !- X,Y,Z Vertex 2 {m}
  10.7906661888875, 3.048, 0,             !- X,Y,Z Vertex 3 {m}
  10.7906661888875, -3.048, 0;            !- X,Y,Z Vertex 4 {m}

OS:Surface,
  {d5bff4b8-5aed-463b-be79-d08a72ef4164}, !- Handle
  Surface 2,                              !- Name
  Wall,                                   !- Surface Type
  ,                                       !- Construction Name
  {3e973765-ae32-4bcb-8b3f-0e47ce846d39}, !- Space Name
  Surface,                                !- Outside Boundary Condition
  {05a8e2de-3cfa-4b0b-b02a-e2038835a258}, !- Outside Boundary Condition Object
  NoSun,                                  !- Sun Exposure
  NoWind,                                 !- Wind Exposure
  ,                                       !- View Factor to Ground
  ,                                       !- Number of Vertices
  7.1330661888875, 3.048, 2.4384,         !- X,Y,Z Vertex 1 {m}
  7.1330661888875, 3.048, 0,              !- X,Y,Z Vertex 2 {m}
  7.1330661888875, 0, 0,                  !- X,Y,Z Vertex 3 {m}
  7.1330661888875, 0, 2.4384;             !- X,Y,Z Vertex 4 {m}

OS:Surface,
  {13faff59-5c9d-44dc-b183-33ee7f9030d6}, !- Handle
  Surface 3,                              !- Name
  Wall,                                   !- Surface Type
  ,                                       !- Construction Name
  {3e973765-ae32-4bcb-8b3f-0e47ce846d39}, !- Space Name
  Surface,                                !- Outside Boundary Condition
  {5700030d-6420-4195-9cee-17466c83bcb5}, !- Outside Boundary Condition Object
  NoSun,                                  !- Sun Exposure
  NoWind,                                 !- Wind Exposure
  ,                                       !- View Factor to Ground
  ,                                       !- Number of Vertices
  10.7906661888875, 3.048, 2.4384,        !- X,Y,Z Vertex 1 {m}
  10.7906661888875, 3.048, 0,             !- X,Y,Z Vertex 2 {m}
  7.1330661888875, 3.048, 0,              !- X,Y,Z Vertex 3 {m}
  7.1330661888875, 3.048, 2.4384;         !- X,Y,Z Vertex 4 {m}

OS:Surface,
  {ca07e667-1fde-47ee-abad-b1da69bd4f76}, !- Handle
  Surface 4,                              !- Name
  Wall,                                   !- Surface Type
  ,                                       !- Construction Name
  {3e973765-ae32-4bcb-8b3f-0e47ce846d39}, !- Space Name
  Outdoors,                               !- Outside Boundary Condition
  ,                                       !- Outside Boundary Condition Object
  SunExposed,                             !- Sun Exposure
  WindExposed,                            !- Wind Exposure
  ,                                       !- View Factor to Ground
  ,                                       !- Number of Vertices
  10.7906661888875, -3.048, 2.4384,       !- X,Y,Z Vertex 1 {m}
  10.7906661888875, -3.048, 0,            !- X,Y,Z Vertex 2 {m}
  10.7906661888875, 3.048, 0,             !- X,Y,Z Vertex 3 {m}
  10.7906661888875, 3.048, 2.4384;        !- X,Y,Z Vertex 4 {m}

OS:Surface,
  {14ce3775-82b3-49c8-afac-c888d2acdc0f}, !- Handle
  Surface 5,                              !- Name
  Wall,                                   !- Surface Type
  ,                                       !- Construction Name
  {3e973765-ae32-4bcb-8b3f-0e47ce846d39}, !- Space Name
  Outdoors,                               !- Outside Boundary Condition
  ,                                       !- Outside Boundary Condition Object
  SunExposed,                             !- Sun Exposure
  WindExposed,                            !- Wind Exposure
  ,                                       !- View Factor to Ground
  ,                                       !- Number of Vertices
  7.1330661888875, -3.048, 2.4384,        !- X,Y,Z Vertex 1 {m}
  7.1330661888875, -3.048, 0,             !- X,Y,Z Vertex 2 {m}
  10.7906661888875, -3.048, 0,            !- X,Y,Z Vertex 3 {m}
  10.7906661888875, -3.048, 2.4384;       !- X,Y,Z Vertex 4 {m}

OS:Surface,
  {161d4c07-0c7e-43e4-b592-8f97c0419950}, !- Handle
  Surface 6,                              !- Name
  RoofCeiling,                            !- Surface Type
  ,                                       !- Construction Name
  {3e973765-ae32-4bcb-8b3f-0e47ce846d39}, !- Space Name
  Surface,                                !- Outside Boundary Condition
  {d6ea1754-fbd6-4a18-92ef-89a45d524f71}, !- Outside Boundary Condition Object
  NoSun,                                  !- Sun Exposure
  NoWind,                                 !- Wind Exposure
  ,                                       !- View Factor to Ground
  ,                                       !- Number of Vertices
  10.7906661888875, -3.048, 2.4384,       !- X,Y,Z Vertex 1 {m}
  10.7906661888875, 3.048, 2.4384,        !- X,Y,Z Vertex 2 {m}
  7.1330661888875, 3.048, 2.4384,         !- X,Y,Z Vertex 3 {m}
  7.1330661888875, -3.048, 2.4384;        !- X,Y,Z Vertex 4 {m}

OS:SpaceType,
  {e1b504f7-5d75-4598-98bc-4304bb57bd2f}, !- Handle
  Space Type 1,                           !- Name
  ,                                       !- Default Construction Set Name
  ,                                       !- Default Schedule Set Name
  ,                                       !- Group Rendering Name
  ,                                       !- Design Specification Outdoor Air Object Name
  ,                                       !- Standards Template
  ,                                       !- Standards Building Type
  garage;                                 !- Standards Space Type

OS:Space,
  {b66210f4-3a46-4918-b508-15948aa5d863}, !- Handle
  living space,                           !- Name
  {8e61fb8b-060b-4473-a604-13be83cd1d63}, !- Space Type Name
  ,                                       !- Default Construction Set Name
  ,                                       !- Default Schedule Set Name
  -0,                                     !- Direction of Relative North {deg}
  0,                                      !- X Origin {m}
  0,                                      !- Y Origin {m}
  0,                                      !- Z Origin {m}
  ,                                       !- Building Story Name
  {c766c5d4-2179-4fcb-ab19-40953f769fcd}, !- Thermal Zone Name
  ,                                       !- Part of Total Floor Area
  ,                                       !- Design Specification Outdoor Air Object Name
  {f6ba3921-e5d7-4de5-a1ee-57e806897351}; !- Building Unit Name

OS:Surface,
  {fa46a1c3-3043-4bdc-8034-561292d65819}, !- Handle
  Surface 7,                              !- Name
  Floor,                                  !- Surface Type
  ,                                       !- Construction Name
  {b66210f4-3a46-4918-b508-15948aa5d863}, !- Space Name
  Foundation,                             !- Outside Boundary Condition
  ,                                       !- Outside Boundary Condition Object
  NoSun,                                  !- Sun Exposure
  NoWind,                                 !- Wind Exposure
  ,                                       !- View Factor to Ground
  ,                                       !- Number of Vertices
  0, 0, 0,                                !- X,Y,Z Vertex 1 {m}
  0, 5.39533309444375, 0,                 !- X,Y,Z Vertex 2 {m}
  10.7906661888875, 5.39533309444375, 0,  !- X,Y,Z Vertex 3 {m}
  10.7906661888875, 3.048, 0,             !- X,Y,Z Vertex 4 {m}
  7.1330661888875, 3.048, 0,              !- X,Y,Z Vertex 5 {m}
  7.1330661888875, 0, 0;                  !- X,Y,Z Vertex 6 {m}

OS:Surface,
  {93b3ce5f-a6e4-4b83-9253-bcf4ececa957}, !- Handle
  Surface 8,                              !- Name
  Wall,                                   !- Surface Type
  ,                                       !- Construction Name
  {b66210f4-3a46-4918-b508-15948aa5d863}, !- Space Name
  Outdoors,                               !- Outside Boundary Condition
  ,                                       !- Outside Boundary Condition Object
  SunExposed,                             !- Sun Exposure
  WindExposed,                            !- Wind Exposure
  ,                                       !- View Factor to Ground
  ,                                       !- Number of Vertices
  0, 5.39533309444375, 2.4384,            !- X,Y,Z Vertex 1 {m}
  0, 5.39533309444375, 0,                 !- X,Y,Z Vertex 2 {m}
  0, 0, 0,                                !- X,Y,Z Vertex 3 {m}
  0, 0, 2.4384;                           !- X,Y,Z Vertex 4 {m}

OS:Surface,
  {9d85f09c-0c71-44a3-bf2c-0d0ee5ae97a5}, !- Handle
  Surface 9,                              !- Name
  Wall,                                   !- Surface Type
  ,                                       !- Construction Name
  {b66210f4-3a46-4918-b508-15948aa5d863}, !- Space Name
  Outdoors,                               !- Outside Boundary Condition
  ,                                       !- Outside Boundary Condition Object
  SunExposed,                             !- Sun Exposure
  WindExposed,                            !- Wind Exposure
  ,                                       !- View Factor to Ground
  ,                                       !- Number of Vertices
  10.7906661888875, 5.39533309444375, 2.4384, !- X,Y,Z Vertex 1 {m}
  10.7906661888875, 5.39533309444375, 0,  !- X,Y,Z Vertex 2 {m}
  0, 5.39533309444375, 0,                 !- X,Y,Z Vertex 3 {m}
  0, 5.39533309444375, 2.4384;            !- X,Y,Z Vertex 4 {m}

OS:Surface,
  {344c049e-c81b-454a-aa9d-1715829358fa}, !- Handle
  Surface 10,                             !- Name
  Wall,                                   !- Surface Type
  ,                                       !- Construction Name
  {b66210f4-3a46-4918-b508-15948aa5d863}, !- Space Name
  Outdoors,                               !- Outside Boundary Condition
  ,                                       !- Outside Boundary Condition Object
  SunExposed,                             !- Sun Exposure
  WindExposed,                            !- Wind Exposure
  ,                                       !- View Factor to Ground
  ,                                       !- Number of Vertices
  10.7906661888875, 3.048, 2.4384,        !- X,Y,Z Vertex 1 {m}
  10.7906661888875, 3.048, 0,             !- X,Y,Z Vertex 2 {m}
  10.7906661888875, 5.39533309444375, 0,  !- X,Y,Z Vertex 3 {m}
  10.7906661888875, 5.39533309444375, 2.4384; !- X,Y,Z Vertex 4 {m}

OS:Surface,
  {5700030d-6420-4195-9cee-17466c83bcb5}, !- Handle
  Surface 11,                             !- Name
  Wall,                                   !- Surface Type
  ,                                       !- Construction Name
  {b66210f4-3a46-4918-b508-15948aa5d863}, !- Space Name
  Surface,                                !- Outside Boundary Condition
  {13faff59-5c9d-44dc-b183-33ee7f9030d6}, !- Outside Boundary Condition Object
  NoSun,                                  !- Sun Exposure
  NoWind,                                 !- Wind Exposure
  ,                                       !- View Factor to Ground
  ,                                       !- Number of Vertices
  7.1330661888875, 3.048, 2.4384,         !- X,Y,Z Vertex 1 {m}
  7.1330661888875, 3.048, 0,              !- X,Y,Z Vertex 2 {m}
  10.7906661888875, 3.048, 0,             !- X,Y,Z Vertex 3 {m}
  10.7906661888875, 3.048, 2.4384;        !- X,Y,Z Vertex 4 {m}

OS:Surface,
  {05a8e2de-3cfa-4b0b-b02a-e2038835a258}, !- Handle
  Surface 12,                             !- Name
  Wall,                                   !- Surface Type
  ,                                       !- Construction Name
  {b66210f4-3a46-4918-b508-15948aa5d863}, !- Space Name
  Surface,                                !- Outside Boundary Condition
  {d5bff4b8-5aed-463b-be79-d08a72ef4164}, !- Outside Boundary Condition Object
  NoSun,                                  !- Sun Exposure
  NoWind,                                 !- Wind Exposure
  ,                                       !- View Factor to Ground
  ,                                       !- Number of Vertices
  7.1330661888875, 0, 2.4384,             !- X,Y,Z Vertex 1 {m}
  7.1330661888875, 0, 0,                  !- X,Y,Z Vertex 2 {m}
  7.1330661888875, 3.048, 0,              !- X,Y,Z Vertex 3 {m}
  7.1330661888875, 3.048, 2.4384;         !- X,Y,Z Vertex 4 {m}

OS:Surface,
  {fe4fe9fa-8dd0-4388-a970-430aa77d76bd}, !- Handle
  Surface 13,                             !- Name
  Wall,                                   !- Surface Type
  ,                                       !- Construction Name
  {b66210f4-3a46-4918-b508-15948aa5d863}, !- Space Name
  Outdoors,                               !- Outside Boundary Condition
  ,                                       !- Outside Boundary Condition Object
  SunExposed,                             !- Sun Exposure
  WindExposed,                            !- Wind Exposure
  ,                                       !- View Factor to Ground
  ,                                       !- Number of Vertices
  0, 0, 2.4384,                           !- X,Y,Z Vertex 1 {m}
  0, 0, 0,                                !- X,Y,Z Vertex 2 {m}
  7.1330661888875, 0, 0,                  !- X,Y,Z Vertex 3 {m}
  7.1330661888875, 0, 2.4384;             !- X,Y,Z Vertex 4 {m}

OS:Surface,
  {59238a6d-745b-42e1-b181-a997382e2564}, !- Handle
  Surface 14,                             !- Name
  RoofCeiling,                            !- Surface Type
  ,                                       !- Construction Name
  {b66210f4-3a46-4918-b508-15948aa5d863}, !- Space Name
  Surface,                                !- Outside Boundary Condition
  {3d625f63-cf5f-41d2-b218-385df97c7f9a}, !- Outside Boundary Condition Object
  NoSun,                                  !- Sun Exposure
  NoWind,                                 !- Wind Exposure
  ,                                       !- View Factor to Ground
  ,                                       !- Number of Vertices
  7.1330661888875, 0, 2.4384,             !- X,Y,Z Vertex 1 {m}
  7.1330661888875, 3.048, 2.4384,         !- X,Y,Z Vertex 2 {m}