!- NOTE: Auto-generated from /test/osw_files/SFD_1story_FB_UA_GRG_MSHP_FuelTanklessWH.osw

OS:Version,
  {7a8b4ac4-7170-4ccb-9e14-02e2ff0f50ff}, !- Handle
  3.2.1;                                  !- Version Identifier

OS:SimulationControl,
  {36c6c8e4-991a-4135-86ea-062948abcb85}, !- Handle
  ,                                       !- Do Zone Sizing Calculation
  ,                                       !- Do System Sizing Calculation
  ,                                       !- Do Plant Sizing Calculation
  No;                                     !- Run Simulation for Sizing Periods

OS:Timestep,
  {868073f3-4383-4d1a-8822-23b55c40b292}, !- Handle
  6;                                      !- Number of Timesteps per Hour

OS:ShadowCalculation,
  {1767ca82-06c5-4267-8d99-02a7421df7bb}, !- Handle
  PolygonClipping,                        !- Shading Calculation Method
  ,                                       !- Shading Calculation Update Frequency Method
  20,                                     !- Shading Calculation Update Frequency
  200,                                    !- Maximum Figures in Shadow Overlap Calculations
  ,                                       !- Polygon Clipping Algorithm
  512,                                    !- Pixel Counting Resolution
  DetailedSkyDiffuseModeling,             !- Sky Diffuse Modeling Algorithm
  No,                                     !- Output External Shading Calculation Results
  No,                                     !- Disable Self-Shading Within Shading Zone Groups
  No;                                     !- Disable Self-Shading From Shading Zone Groups to Other Zones

OS:SurfaceConvectionAlgorithm:Outside,
  {fac9b5f3-2f52-493b-9ae4-f0593c910769}, !- Handle
  DOE-2;                                  !- Algorithm

OS:SurfaceConvectionAlgorithm:Inside,
  {e2776f5d-fe4c-4437-87e9-14249da72a8f}, !- Handle
  TARP;                                   !- Algorithm

OS:ZoneCapacitanceMultiplier:ResearchSpecial,
  {4538477d-b48c-4dda-b4b5-f511cc21c619}, !- Handle
  ,                                       !- Temperature Capacity Multiplier
  15,                                     !- Humidity Capacity Multiplier
  ;                                       !- Carbon Dioxide Capacity Multiplier

OS:RunPeriod,
  {07f64791-74ab-4916-94f7-c3465a5e4da2}, !- Handle
  Run Period 1,                           !- Name
  1,                                      !- Begin Month
  1,                                      !- Begin Day of Month
  12,                                     !- End Month
  31,                                     !- End Day of Month
  ,                                       !- Use Weather File Holidays and Special Days
  ,                                       !- Use Weather File Daylight Saving Period
  ,                                       !- Apply Weekend Holiday Rule
  ,                                       !- Use Weather File Rain Indicators
  ,                                       !- Use Weather File Snow Indicators
  ;                                       !- Number of Times Runperiod to be Repeated

OS:YearDescription,
  {0b4cdf1f-3233-495d-b2d6-7b6e0e2a7a16}, !- Handle
  2007,                                   !- Calendar Year
  ,                                       !- Day of Week for Start Day
  ;                                       !- Is Leap Year

OS:WeatherFile,
  {f1808fe5-c43b-42da-9bf0-7e45d1985311}, !- Handle
  Denver Intl Ap,                         !- City
  CO,                                     !- State Province Region
  USA,                                    !- Country
  TMY3,                                   !- Data Source
  725650,                                 !- WMO Number
  39.83,                                  !- Latitude {deg}
  -104.65,                                !- Longitude {deg}
  -7,                                     !- Time Zone {hr}
  1650,                                   !- Elevation {m}
  C:/Users/aspeake/Documents/resstock/resources/measures/HPXMLtoOpenStudio/weather/USA_CO_Denver.Intl.AP.725650_TMY3.epw, !- Url
  E23378AA;                               !- Checksum

OS:AdditionalProperties,
  {143bff6b-4a67-4265-bfb1-f32b46d8f3e6}, !- Handle
  {f1808fe5-c43b-42da-9bf0-7e45d1985311}, !- Object Name
  EPWHeaderCity,                          !- Feature Name 1
  String,                                 !- Feature Data Type 1
  Denver Intl Ap,                         !- Feature Value 1
  EPWHeaderState,                         !- Feature Name 2
  String,                                 !- Feature Data Type 2
  CO,                                     !- Feature Value 2
  EPWHeaderCountry,                       !- Feature Name 3
  String,                                 !- Feature Data Type 3
  USA,                                    !- Feature Value 3
  EPWHeaderDataSource,                    !- Feature Name 4
  String,                                 !- Feature Data Type 4
  TMY3,                                   !- Feature Value 4
  EPWHeaderStation,                       !- Feature Name 5
  String,                                 !- Feature Data Type 5
  725650,                                 !- Feature Value 5
  EPWHeaderLatitude,                      !- Feature Name 6
  Double,                                 !- Feature Data Type 6
  39.829999999999998,                     !- Feature Value 6
  EPWHeaderLongitude,                     !- Feature Name 7
  Double,                                 !- Feature Data Type 7
  -104.65000000000001,                    !- Feature Value 7
  EPWHeaderTimezone,                      !- Feature Name 8
  Double,                                 !- Feature Data Type 8
  -7,                                     !- Feature Value 8
  EPWHeaderAltitude,                      !- Feature Name 9
  Double,                                 !- Feature Data Type 9
  5413.3858267716532,                     !- Feature Value 9
  EPWHeaderLocalPressure,                 !- Feature Name 10
  Double,                                 !- Feature Data Type 10
  0.81937567683596546,                    !- Feature Value 10
  EPWHeaderRecordsPerHour,                !- Feature Name 11
  Double,                                 !- Feature Data Type 11
  0,                                      !- Feature Value 11
  EPWDataAnnualAvgDrybulb,                !- Feature Name 12
  Double,                                 !- Feature Data Type 12
  51.575616438356228,                     !- Feature Value 12
  EPWDataAnnualMinDrybulb,                !- Feature Name 13
  Double,                                 !- Feature Data Type 13
  -2.9200000000000017,                    !- Feature Value 13
  EPWDataAnnualMaxDrybulb,                !- Feature Name 14
  Double,                                 !- Feature Data Type 14
  104,                                    !- Feature Value 14
  EPWDataCDD50F,                          !- Feature Name 15
  Double,                                 !- Feature Data Type 15
  3072.2925000000005,                     !- Feature Value 15
  EPWDataCDD65F,                          !- Feature Name 16
  Double,                                 !- Feature Data Type 16
  883.62000000000035,                     !- Feature Value 16
  EPWDataHDD50F,                          !- Feature Name 17
  Double,                                 !- Feature Data Type 17
  2497.1925000000001,                     !- Feature Value 17
  EPWDataHDD65F,                          !- Feature Name 18
  Double,                                 !- Feature Data Type 18
  5783.5200000000013,                     !- Feature Value 18
  EPWDataAnnualAvgWindspeed,              !- Feature Name 19
  Double,                                 !- Feature Data Type 19
  3.9165296803649667,                     !- Feature Value 19
  EPWDataMonthlyAvgDrybulbs,              !- Feature Name 20
  String,                                 !- Feature Data Type 20
  33.4191935483871&#4431.90142857142857&#4443.02620967741937&#4442.48624999999999&#4459.877741935483854&#4473.57574999999997&#4472.07975806451608&#4472.70008064516134&#4466.49200000000006&#4450.079112903225806&#4437.218250000000005&#4434.582177419354835, !- Feature Value 20
  EPWDataGroundMonthlyTemps,              !- Feature Name 21
  String,                                 !- Feature Data Type 21
  44.08306285945173&#4440.89570904991865&#4440.64045432632048&#4442.153016571250646&#4448.225111118704206&#4454.268919273837525&#4459.508577937551024&#4462.82777283423508&#4463.10975667174995&#4460.41014950381947&#4455.304105212311526&#4449.445696474514364, !- Feature Value 21
  EPWDataWSF,                             !- Feature Name 22
  Double,                                 !- Feature Data Type 22
  0.58999999999999997,                    !- Feature Value 22
  EPWDataMonthlyAvgDailyHighDrybulbs,     !- Feature Name 23
  String,                                 !- Feature Data Type 23
  47.41032258064516&#4446.58642857142857&#4455.15032258064517&#4453.708&#4472.80193548387098&#4488.67600000000002&#4486.1858064516129&#4485.87225806451613&#4482.082&#4463.18064516129033&#4448.73400000000001&#4448.87935483870968, !- Feature Value 23
  EPWDataMonthlyAvgDailyLowDrybulbs,      !- Feature Name 24
  String,                                 !- Feature Data Type 24
  19.347741935483874&#4419.856428571428573&#4430.316129032258065&#4431.112&#4447.41612903225806&#4457.901999999999994&#4459.063870967741934&#4460.956774193548384&#4452.352000000000004&#4438.41612903225806&#4427.002000000000002&#4423.02903225806451, !- Feature Value 24
  EPWDesignHeatingDrybulb,                !- Feature Name 25
  Double,                                 !- Feature Data Type 25
  12.02,                                  !- Feature Value 25
  EPWDesignHeatingWindspeed,              !- Feature Name 26
  Double,                                 !- Feature Data Type 26
  2.8062500000000004,                     !- Feature Value 26
  EPWDesignCoolingDrybulb,                !- Feature Name 27
  Double,                                 !- Feature Data Type 27
  91.939999999999998,                     !- Feature Value 27
  EPWDesignCoolingWetbulb,                !- Feature Name 28
  Double,                                 !- Feature Data Type 28
  59.95131430195849,                      !- Feature Value 28
  EPWDesignCoolingHumidityRatio,          !- Feature Name 29
  Double,                                 !- Feature Data Type 29
  0.0059161086834698092,                  !- Feature Value 29
  EPWDesignCoolingWindspeed,              !- Feature Name 30
  Double,                                 !- Feature Data Type 30
  3.7999999999999989,                     !- Feature Value 30
  EPWDesignDailyTemperatureRange,         !- Feature Name 31
  Double,                                 !- Feature Data Type 31
  24.915483870967748,                     !- Feature Value 31
  EPWDesignDehumidDrybulb,                !- Feature Name 32
  Double,                                 !- Feature Data Type 32
  67.996785714285721,                     !- Feature Value 32
  EPWDesignDehumidHumidityRatio,          !- Feature Name 33
  Double,                                 !- Feature Data Type 33
  0.012133744170488724,                   !- Feature Value 33
  EPWDesignCoolingDirectNormal,           !- Feature Name 34
  Double,                                 !- Feature Data Type 34
  985,                                    !- Feature Value 34
  EPWDesignCoolingDiffuseHorizontal,      !- Feature Name 35
  Double,                                 !- Feature Data Type 35
  84;                                     !- Feature Value 35

OS:Site,
  {d8224b41-6b01-4bf0-8f0d-8e900d600997}, !- Handle
  Denver Intl Ap_CO_USA,                  !- Name
  39.83,                                  !- Latitude {deg}
  -104.65,                                !- Longitude {deg}
  -7,                                     !- Time Zone {hr}
  1650,                                   !- Elevation {m}
  Suburbs;                                !- Terrain

OS:ClimateZones,
  {2179f6f6-e77d-445f-a3cc-8ac3c336d5ed}, !- Handle
  Building America,                       !- Climate Zone Institution Name 1
  ,                                       !- Climate Zone Document Name 1
  0,                                      !- Climate Zone Document Year 1
  Cold;                                   !- Climate Zone Value 1

OS:Site:WaterMainsTemperature,
  {2efcb783-268d-4709-bd1e-ad580e632f37}, !- Handle
  Correlation,                            !- Calculation Method
  ,                                       !- Temperature Schedule Name
  10.8753424657535,                       !- Annual Average Outdoor Air Temperature {C}
  23.1524007936508;                       !- Maximum Difference In Monthly Average Outdoor Air Temperatures {deltaC}

OS:RunPeriodControl:DaylightSavingTime,
  {d64e7ce7-c9b5-4ae8-a9e7-1a4a74efa647}, !- Handle
  3/12,                                   !- Start Date
  11/5;                                   !- End Date

OS:Site:GroundTemperature:Deep,
  {8c960092-5d11-468c-aa92-a0dac759fba7}, !- Handle
  10.8753424657535,                       !- January Deep Ground Temperature {C}
  10.8753424657535,                       !- February Deep Ground Temperature {C}
  10.8753424657535,                       !- March Deep Ground Temperature {C}
  10.8753424657535,                       !- April Deep Ground Temperature {C}
  10.8753424657535,                       !- May Deep Ground Temperature {C}
  10.8753424657535,                       !- June Deep Ground Temperature {C}
  10.8753424657535,                       !- July Deep Ground Temperature {C}
  10.8753424657535,                       !- August Deep Ground Temperature {C}
  10.8753424657535,                       !- September Deep Ground Temperature {C}
  10.8753424657535,                       !- October Deep Ground Temperature {C}
  10.8753424657535,                       !- November Deep Ground Temperature {C}
  10.8753424657535;                       !- December Deep Ground Temperature {C}

OS:Building,
  {6f3fbe8c-c34e-4cec-b7dc-dbc2a67e3172}, !- Handle
  Building 1,                             !- Name
  ,                                       !- Building Sector Type
  270,                                    !- North Axis {deg}
  ,                                       !- Nominal Floor to Floor Height {m}
  ,                                       !- Space Type Name
  ,                                       !- Default Construction Set Name
  ,                                       !- Default Schedule Set Name
  2,                                      !- Standards Number of Stories
  1,                                      !- Standards Number of Above Ground Stories
  ,                                       !- Standards Template
  singlefamilydetached,                   !- Standards Building Type
  1;                                      !- Standards Number of Living Units

OS:AdditionalProperties,
  {534a02e1-4844-4ffa-ae78-fcc7733446b2}, !- Handle
  {6f3fbe8c-c34e-4cec-b7dc-dbc2a67e3172}, !- Object Name
  Total Units Modeled,                    !- Feature Name 1
  Integer,                                !- Feature Data Type 1
  1,                                      !- Feature Value 1
  has_water_heater_flue,                  !- Feature Name 2
  Boolean,                                !- Feature Data Type 2
  false;                                  !- Feature Value 2

OS:ThermalZone,
  {b6b89fda-1fc4-4f0b-a003-30a8ed2a28ea}, !- Handle
  living zone,                            !- Name
  ,                                       !- Multiplier
  ,                                       !- Ceiling Height {m}
  ,                                       !- Volume {m3}
  ,                                       !- Floor Area {m2}
  ,                                       !- Zone Inside Convection Algorithm
  ,                                       !- Zone Outside Convection Algorithm
  ,                                       !- Zone Conditioning Equipment List Name
  {f48c27c5-5c61-48f7-9441-1986e62a88cb}, !- Zone Air Inlet Port List
  {499fa88a-1585-458f-ae53-cc469ec81f8d}, !- Zone Air Exhaust Port List
  {f6f6140b-df36-486a-999d-3212dcf5a66d}, !- Zone Air Node Name
  {7252108e-6219-4728-819b-6c093f363047}, !- Zone Return Air Port List
  ,                                       !- Primary Daylighting Control Name
  ,                                       !- Fraction of Zone Controlled by Primary Daylighting Control
  ,                                       !- Secondary Daylighting Control Name
  ,                                       !- Fraction of Zone Controlled by Secondary Daylighting Control
  ,                                       !- Illuminance Map Name
  ,                                       !- Group Rendering Name
  {a357a7b9-8868-4fa7-a02b-f6dd46d0224e}, !- Thermostat Name
  No;                                     !- Use Ideal Air Loads

OS:Node,
  {93c951e1-040b-4228-8877-bab0a11c04d4}, !- Handle
  Node 1,                                 !- Name
  {f6f6140b-df36-486a-999d-3212dcf5a66d}, !- Inlet Port
  ;                                       !- Outlet Port

OS:Connection,
  {f6f6140b-df36-486a-999d-3212dcf5a66d}, !- Handle
  {b6b89fda-1fc4-4f0b-a003-30a8ed2a28ea}, !- Source Object
  11,                                     !- Outlet Port
  {93c951e1-040b-4228-8877-bab0a11c04d4}, !- Target Object
  2;                                      !- Inlet Port

OS:PortList,
  {f48c27c5-5c61-48f7-9441-1986e62a88cb}, !- Handle
  {b6b89fda-1fc4-4f0b-a003-30a8ed2a28ea}, !- HVAC Component
  {d81612ea-5d2b-4749-88b0-e45dbc0ea544}, !- Port 1
  {5dc20f97-50db-4471-b811-9c8c932de21b}; !- Port 2

OS:PortList,
  {499fa88a-1585-458f-ae53-cc469ec81f8d}, !- Handle
  {b6b89fda-1fc4-4f0b-a003-30a8ed2a28ea}; !- HVAC Component

OS:PortList,
  {7252108e-6219-4728-819b-6c093f363047}, !- Handle
  {b6b89fda-1fc4-4f0b-a003-30a8ed2a28ea}, !- HVAC Component
  {4474b245-e1d8-4c0f-bb73-56ed7ca36f52}, !- Port 1
  {a64768ba-7780-4884-adac-401b23e2d8ad}; !- Port 2

OS:Sizing:Zone,
  {ede9a1c8-37e0-4323-98a0-2f49ac19e4c3}, !- Handle
  {b6b89fda-1fc4-4f0b-a003-30a8ed2a28ea}, !- Zone or ZoneList Name
  SupplyAirTemperature,                   !- Zone Cooling Design Supply Air Temperature Input Method
  14,                                     !- Zone Cooling Design Supply Air Temperature {C}
  11.11,                                  !- Zone Cooling Design Supply Air Temperature Difference {deltaC}
  SupplyAirTemperature,                   !- Zone Heating Design Supply Air Temperature Input Method
  40,                                     !- Zone Heating Design Supply Air Temperature {C}
  11.11,                                  !- Zone Heating Design Supply Air Temperature Difference {deltaC}
  0.0085,                                 !- Zone Cooling Design Supply Air Humidity Ratio {kg-H2O/kg-air}
  0.008,                                  !- Zone Heating Design Supply Air Humidity Ratio {kg-H2O/kg-air}
  ,                                       !- Zone Heating Sizing Factor
  ,                                       !- Zone Cooling Sizing Factor
  DesignDay,                              !- Cooling Design Air Flow Method
  ,                                       !- Cooling Design Air Flow Rate {m3/s}
  ,                                       !- Cooling Minimum Air Flow per Zone Floor Area {m3/s-m2}
  ,                                       !- Cooling Minimum Air Flow {m3/s}
  ,                                       !- Cooling Minimum Air Flow Fraction
  DesignDay,                              !- Heating Design Air Flow Method
  ,                                       !- Heating Design Air Flow Rate {m3/s}
  ,                                       !- Heating Maximum Air Flow per Zone Floor Area {m3/s-m2}
  ,                                       !- Heating Maximum Air Flow {m3/s}
  ,                                       !- Heating Maximum Air Flow Fraction
  No,                                     !- Account for Dedicated Outdoor Air System
  NeutralSupplyAir,                       !- Dedicated Outdoor Air System Control Strategy
  autosize,                               !- Dedicated Outdoor Air Low Setpoint Temperature for Design {C}
  autosize;                               !- Dedicated Outdoor Air High Setpoint Temperature for Design {C}

OS:ZoneHVAC:EquipmentList,
  {6a17232e-3b4c-4776-bf24-920fc9e905fb}, !- Handle
  Zone HVAC Equipment List 1,             !- Name
  {b6b89fda-1fc4-4f0b-a003-30a8ed2a28ea}, !- Thermal Zone
  SequentialLoad,                         !- Load Distribution Scheme
  {73035351-e910-48a3-8062-ba54581ff93a}, !- Zone Equipment 1
  1,                                      !- Zone Equipment Cooling Sequence 1
  1,                                      !- Zone Equipment Heating or No-Load Sequence 1
  ,                                       !- Zone Equipment Sequential Cooling Fraction Schedule Name 1
  ,                                       !- Zone Equipment Sequential Heating Fraction Schedule Name 1
  {da67b3fc-e67d-402d-bceb-ff65c1e50648}, !- Zone Equipment 2
  2,                                      !- Zone Equipment Cooling Sequence 2
  2,                                      !- Zone Equipment Heating or No-Load Sequence 2
  ,                                       !- Zone Equipment Sequential Cooling Fraction Schedule Name 2
  ;                                       !- Zone Equipment Sequential Heating Fraction Schedule Name 2

OS:ThermalZone,
  {f0f1b1ee-5e0a-4e12-9885-e674295c0325}, !- Handle
  garage zone,                            !- Name
  ,                                       !- Multiplier
  ,                                       !- Ceiling Height {m}
  ,                                       !- Volume {m3}
  ,                                       !- Floor Area {m2}
  ,                                       !- Zone Inside Convection Algorithm
  ,                                       !- Zone Outside Convection Algorithm
  ,                                       !- Zone Conditioning Equipment List Name
  {5a37e7b4-f28d-41f1-87eb-474ba0cef28d}, !- Zone Air Inlet Port List
  {f42d717f-80d8-43ca-8cc9-65b2527357db}, !- Zone Air Exhaust Port List
  {2b3408a7-d2a0-4eea-a92f-f32ee5e81dbf}, !- Zone Air Node Name
  {1cd3f281-3e1c-4495-8f57-8d753b44099a}, !- Zone Return Air Port List
  ,                                       !- Primary Daylighting Control Name
  ,                                       !- Fraction of Zone Controlled by Primary Daylighting Control
  ,                                       !- Secondary Daylighting Control Name
  ,                                       !- Fraction of Zone Controlled by Secondary Daylighting Control
  ,                                       !- Illuminance Map Name
  ,                                       !- Group Rendering Name
  ,                                       !- Thermostat Name
  No;                                     !- Use Ideal Air Loads

OS:Node,
  {483ccc10-aefb-4bb3-b838-8a63e3dd9e64}, !- Handle
  Node 2,                                 !- Name
  {2b3408a7-d2a0-4eea-a92f-f32ee5e81dbf}, !- Inlet Port
  ;                                       !- Outlet Port

OS:Connection,
  {2b3408a7-d2a0-4eea-a92f-f32ee5e81dbf}, !- Handle
  {f0f1b1ee-5e0a-4e12-9885-e674295c0325}, !- Source Object
  11,                                     !- Outlet Port
  {483ccc10-aefb-4bb3-b838-8a63e3dd9e64}, !- Target Object
  2;                                      !- Inlet Port

OS:PortList,
  {5a37e7b4-f28d-41f1-87eb-474ba0cef28d}, !- Handle
  {f0f1b1ee-5e0a-4e12-9885-e674295c0325}; !- HVAC Component

OS:PortList,
  {f42d717f-80d8-43ca-8cc9-65b2527357db}, !- Handle
  {f0f1b1ee-5e0a-4e12-9885-e674295c0325}; !- HVAC Component

OS:PortList,
  {1cd3f281-3e1c-4495-8f57-8d753b44099a}, !- Handle
  {f0f1b1ee-5e0a-4e12-9885-e674295c0325}; !- HVAC Component

OS:Sizing:Zone,
  {03a33d1c-a51a-4457-99d1-d1ba385d5e01}, !- Handle
  {f0f1b1ee-5e0a-4e12-9885-e674295c0325}, !- Zone or ZoneList Name
  SupplyAirTemperature,                   !- Zone Cooling Design Supply Air Temperature Input Method
  14,                                     !- Zone Cooling Design Supply Air Temperature {C}
  11.11,                                  !- Zone Cooling Design Supply Air Temperature Difference {deltaC}
  SupplyAirTemperature,                   !- Zone Heating Design Supply Air Temperature Input Method
  40,                                     !- Zone Heating Design Supply Air Temperature {C}
  11.11,                                  !- Zone Heating Design Supply Air Temperature Difference {deltaC}
  0.0085,                                 !- Zone Cooling Design Supply Air Humidity Ratio {kg-H2O/kg-air}
  0.008,                                  !- Zone Heating Design Supply Air Humidity Ratio {kg-H2O/kg-air}
  ,                                       !- Zone Heating Sizing Factor
  ,                                       !- Zone Cooling Sizing Factor
  DesignDay,                              !- Cooling Design Air Flow Method
  ,                                       !- Cooling Design Air Flow Rate {m3/s}
  ,                                       !- Cooling Minimum Air Flow per Zone Floor Area {m3/s-m2}
  ,                                       !- Cooling Minimum Air Flow {m3/s}
  ,                                       !- Cooling Minimum Air Flow Fraction
  DesignDay,                              !- Heating Design Air Flow Method
  ,                                       !- Heating Design Air Flow Rate {m3/s}
  ,                                       !- Heating Maximum Air Flow per Zone Floor Area {m3/s-m2}
  ,                                       !- Heating Maximum Air Flow {m3/s}
  ,                                       !- Heating Maximum Air Flow Fraction
  No,                                     !- Account for Dedicated Outdoor Air System
  NeutralSupplyAir,                       !- Dedicated Outdoor Air System Control Strategy
  autosize,                               !- Dedicated Outdoor Air Low Setpoint Temperature for Design {C}
  autosize;                               !- Dedicated Outdoor Air High Setpoint Temperature for Design {C}

OS:ZoneHVAC:EquipmentList,
  {2ad01860-11fa-474b-a062-8959d6437aed}, !- Handle
  Zone HVAC Equipment List 2,             !- Name
  {f0f1b1ee-5e0a-4e12-9885-e674295c0325}; !- Thermal Zone

OS:Space,
  {d4efe974-be8e-4f2a-b27e-fc475b7d22ab}, !- Handle
  garage space,                           !- Name
  {c1dc9d5e-f686-49da-a3e2-1ce552824481}, !- Space Type Name
  ,                                       !- Default Construction Set Name
  ,                                       !- Default Schedule Set Name
  -0,                                     !- Direction of Relative North {deg}
  0,                                      !- X Origin {m}
  0,                                      !- Y Origin {m}
  0,                                      !- Z Origin {m}
  ,                                       !- Building Story Name
  {f0f1b1ee-5e0a-4e12-9885-e674295c0325}; !- Thermal Zone Name

OS:Surface,
  {8ef05164-a741-4787-b0df-15f0c73a458a}, !- Handle
  Surface 1,                              !- Name
  Floor,                                  !- Surface Type
  {83b7f09b-5768-4085-b616-afe629dc0378}, !- Construction Name
  {d4efe974-be8e-4f2a-b27e-fc475b7d22ab}, !- Space Name
  Foundation,                             !- Outside Boundary Condition
  {56ee172f-7665-482e-a939-05b8781c94ca}, !- Outside Boundary Condition Object
  NoSun,                                  !- Sun Exposure
  NoWind,                                 !- Wind Exposure
  ,                                       !- View Factor to Ground
  ,                                       !- Number of Vertices
  16.3508427172132, -3.6576, 0,           !- X,Y,Z Vertex 1 {m}
  16.3508427172132, 3.6576, 0,            !- X,Y,Z Vertex 2 {m}
  20.0084427172132, 3.6576, 0,            !- X,Y,Z Vertex 3 {m}
  20.0084427172132, -3.6576, 0;           !- X,Y,Z Vertex 4 {m}

OS:Surface,
  {7e53657c-a54e-439c-8463-d81fe7ac6282}, !- Handle
  Surface 2,                              !- Name
  Wall,                                   !- Surface Type
  {bba5bf7e-864c-4f24-84f1-43815a070c35}, !- Construction Name
  {d4efe974-be8e-4f2a-b27e-fc475b7d22ab}, !- Space Name
  Surface,                                !- Outside Boundary Condition
  {33a8b5d7-e9fa-4630-aa12-97c37f9cd7bd}, !- Outside Boundary Condition Object
  NoSun,                                  !- Sun Exposure
  NoWind,                                 !- Wind Exposure
  ,                                       !- View Factor to Ground
  ,                                       !- Number of Vertices
  16.3508427172132, 3.6576, 2.4384,       !- X,Y,Z Vertex 1 {m}
  16.3508427172132, 3.6576, 0,            !- X,Y,Z Vertex 2 {m}
  16.3508427172132, 0, 0,                 !- X,Y,Z Vertex 3 {m}
  16.3508427172132, 0, 2.4384;            !- X,Y,Z Vertex 4 {m}

OS:Surface,
  {d0667059-8968-4073-b854-1264d27f64a8}, !- Handle
  Surface 3,                              !- Name
  Wall,                                   !- Surface Type
  {bba5bf7e-864c-4f24-84f1-43815a070c35}, !- Construction Name
  {d4efe974-be8e-4f2a-b27e-fc475b7d22ab}, !- Space Name
  Surface,                                !- Outside Boundary Condition
  {3c3951db-f540-4b04-b86f-f0a5b7873b68}, !- Outside Boundary Condition Object
  NoSun,                                  !- Sun Exposure
  NoWind,                                 !- Wind Exposure
  ,                                       !- View Factor to Ground
  ,                                       !- Number of Vertices
  20.0084427172132, 3.6576, 2.4384,       !- X,Y,Z Vertex 1 {m}
  20.0084427172132, 3.6576, 0,            !- X,Y,Z Vertex 2 {m}
  16.3508427172132, 3.6576, 0,            !- X,Y,Z Vertex 3 {m}