!- NOTE: Auto-generated from /test/osw_files/SFD_1story_FB_UA_GRG_RoomAC_ElecBoiler_FuelTanklessWH.osw

OS:Version,
  {80ff954a-a6c6-4988-81b1-28ae7450078e}, !- Handle
  2.8.1;                                  !- Version Identifier

OS:SimulationControl,
  {914d9509-5fbe-487a-9f0c-379f1a041264}, !- Handle
  ,                                       !- Do Zone Sizing Calculation
  ,                                       !- Do System Sizing Calculation
  ,                                       !- Do Plant Sizing Calculation
  No;                                     !- Run Simulation for Sizing Periods

OS:Timestep,
  {f01015aa-0391-4e2b-9c42-835afaec7cc2}, !- Handle
  6;                                      !- Number of Timesteps per Hour

OS:ShadowCalculation,
  {102dd3e4-5467-43c9-a27a-1eb028b6a71d}, !- Handle
  20,                                     !- Calculation Frequency
  200;                                    !- Maximum Figures in Shadow Overlap Calculations

OS:SurfaceConvectionAlgorithm:Outside,
  {d3565436-7926-47c7-8418-6c74e44fdbcb}, !- Handle
  DOE-2;                                  !- Algorithm

OS:SurfaceConvectionAlgorithm:Inside,
  {75c05606-1cd7-4616-b361-5bad469f9d35}, !- Handle
  TARP;                                   !- Algorithm

OS:ZoneCapacitanceMultiplier:ResearchSpecial,
  {5a90c3d7-501d-4b65-9a7d-e49225c6464c}, !- Handle
  ,                                       !- Temperature Capacity Multiplier
  15,                                     !- Humidity Capacity Multiplier
  ;                                       !- Carbon Dioxide Capacity Multiplier

OS:RunPeriod,
  {9137f499-d0b9-4fc2-b489-83b0c7a851d2}, !- Handle
  Run Period 1,                           !- Name
  1,                                      !- Begin Month
  1,                                      !- Begin Day of Month
  12,                                     !- End Month
  31,                                     !- End Day of Month
  ,                                       !- Use Weather File Holidays and Special Days
  ,                                       !- Use Weather File Daylight Saving Period
  ,                                       !- Apply Weekend Holiday Rule
  ,                                       !- Use Weather File Rain Indicators
  ,                                       !- Use Weather File Snow Indicators
  ;                                       !- Number of Times Runperiod to be Repeated

OS:YearDescription,
  {88643aa5-fd20-4611-b885-4c3ff6a0598f}, !- Handle
  2007,                                   !- Calendar Year
  ,                                       !- Day of Week for Start Day
  ;                                       !- Is Leap Year

OS:WeatherFile,
  {42942db3-e35f-4a50-a050-56a153093011}, !- Handle
  Denver Intl Ap,                         !- City
  CO,                                     !- State Province Region
  USA,                                    !- Country
  TMY3,                                   !- Data Source
  725650,                                 !- WMO Number
  39.83,                                  !- Latitude {deg}
  -104.65,                                !- Longitude {deg}
  -7,                                     !- Time Zone {hr}
  1650,                                   !- Elevation {m}
  file:../weather/USA_CO_Denver.Intl.AP.725650_TMY3.epw, !- Url
  E23378AA;                               !- Checksum

OS:AdditionalProperties,
  {e4194d8d-a825-4ed0-9f21-c1d7323211fa}, !- Handle
  {42942db3-e35f-4a50-a050-56a153093011}, !- Object Name
  EPWHeaderCity,                          !- Feature Name 1
  String,                                 !- Feature Data Type 1
  Denver Intl Ap,                         !- Feature Value 1
  EPWHeaderState,                         !- Feature Name 2
  String,                                 !- Feature Data Type 2
  CO,                                     !- Feature Value 2
  EPWHeaderCountry,                       !- Feature Name 3
  String,                                 !- Feature Data Type 3
  USA,                                    !- Feature Value 3
  EPWHeaderDataSource,                    !- Feature Name 4
  String,                                 !- Feature Data Type 4
  TMY3,                                   !- Feature Value 4
  EPWHeaderStation,                       !- Feature Name 5
  String,                                 !- Feature Data Type 5
  725650,                                 !- Feature Value 5
  EPWHeaderLatitude,                      !- Feature Name 6
  Double,                                 !- Feature Data Type 6
  39.829999999999998,                     !- Feature Value 6
  EPWHeaderLongitude,                     !- Feature Name 7
  Double,                                 !- Feature Data Type 7
  -104.65000000000001,                    !- Feature Value 7
  EPWHeaderTimezone,                      !- Feature Name 8
  Double,                                 !- Feature Data Type 8
  -7,                                     !- Feature Value 8
  EPWHeaderAltitude,                      !- Feature Name 9
  Double,                                 !- Feature Data Type 9
  5413.3858267716532,                     !- Feature Value 9
  EPWHeaderLocalPressure,                 !- Feature Name 10
  Double,                                 !- Feature Data Type 10
  0.81937567683596546,                    !- Feature Value 10
  EPWHeaderRecordsPerHour,                !- Feature Name 11
  Double,                                 !- Feature Data Type 11
  0,                                      !- Feature Value 11
  EPWDataAnnualAvgDrybulb,                !- Feature Name 12
  Double,                                 !- Feature Data Type 12
  51.575616438356228,                     !- Feature Value 12
  EPWDataAnnualMinDrybulb,                !- Feature Name 13
  Double,                                 !- Feature Data Type 13
  -2.9200000000000017,                    !- Feature Value 13
  EPWDataAnnualMaxDrybulb,                !- Feature Name 14
  Double,                                 !- Feature Data Type 14
  104,                                    !- Feature Value 14
  EPWDataCDD50F,                          !- Feature Name 15
  Double,                                 !- Feature Data Type 15
  3072.2925000000005,                     !- Feature Value 15
  EPWDataCDD65F,                          !- Feature Name 16
  Double,                                 !- Feature Data Type 16
  883.62000000000035,                     !- Feature Value 16
  EPWDataHDD50F,                          !- Feature Name 17
  Double,                                 !- Feature Data Type 17
  2497.1925000000001,                     !- Feature Value 17
  EPWDataHDD65F,                          !- Feature Name 18
  Double,                                 !- Feature Data Type 18
  5783.5200000000013,                     !- Feature Value 18
  EPWDataAnnualAvgWindspeed,              !- Feature Name 19
  Double,                                 !- Feature Data Type 19
  3.9165296803649667,                     !- Feature Value 19
  EPWDataMonthlyAvgDrybulbs,              !- Feature Name 20
  String,                                 !- Feature Data Type 20
  33.4191935483871&#4431.90142857142857&#4443.02620967741937&#4442.48624999999999&#4459.877741935483854&#4473.57574999999997&#4472.07975806451608&#4472.70008064516134&#4466.49200000000006&#4450.079112903225806&#4437.218250000000005&#4434.582177419354835, !- Feature Value 20
  EPWDataGroundMonthlyTemps,              !- Feature Name 21
  String,                                 !- Feature Data Type 21
  44.08306285945173&#4440.89570904991865&#4440.64045432632048&#4442.153016571250646&#4448.225111118704206&#4454.268919273837525&#4459.508577937551024&#4462.82777283423508&#4463.10975667174995&#4460.41014950381947&#4455.304105212311526&#4449.445696474514364, !- Feature Value 21
  EPWDataWSF,                             !- Feature Name 22
  Double,                                 !- Feature Data Type 22
  0.58999999999999997,                    !- Feature Value 22
  EPWDataMonthlyAvgDailyHighDrybulbs,     !- Feature Name 23
  String,                                 !- Feature Data Type 23
  47.41032258064516&#4446.58642857142857&#4455.15032258064517&#4453.708&#4472.80193548387098&#4488.67600000000002&#4486.1858064516129&#4485.87225806451613&#4482.082&#4463.18064516129033&#4448.73400000000001&#4448.87935483870968, !- Feature Value 23
  EPWDataMonthlyAvgDailyLowDrybulbs,      !- Feature Name 24
  String,                                 !- Feature Data Type 24
  19.347741935483874&#4419.856428571428573&#4430.316129032258065&#4431.112&#4447.41612903225806&#4457.901999999999994&#4459.063870967741934&#4460.956774193548384&#4452.352000000000004&#4438.41612903225806&#4427.002000000000002&#4423.02903225806451, !- Feature Value 24
  EPWDesignHeatingDrybulb,                !- Feature Name 25
  Double,                                 !- Feature Data Type 25
  12.02,                                  !- Feature Value 25
  EPWDesignHeatingWindspeed,              !- Feature Name 26
  Double,                                 !- Feature Data Type 26
  2.8062500000000004,                     !- Feature Value 26
  EPWDesignCoolingDrybulb,                !- Feature Name 27
  Double,                                 !- Feature Data Type 27
  91.939999999999998,                     !- Feature Value 27
  EPWDesignCoolingWetbulb,                !- Feature Name 28
  Double,                                 !- Feature Data Type 28
  59.95131430195849,                      !- Feature Value 28
  EPWDesignCoolingHumidityRatio,          !- Feature Name 29
  Double,                                 !- Feature Data Type 29
  0.0059161086834698092,                  !- Feature Value 29
  EPWDesignCoolingWindspeed,              !- Feature Name 30
  Double,                                 !- Feature Data Type 30
  3.7999999999999989,                     !- Feature Value 30
  EPWDesignDailyTemperatureRange,         !- Feature Name 31
  Double,                                 !- Feature Data Type 31
  24.915483870967748,                     !- Feature Value 31
  EPWDesignDehumidDrybulb,                !- Feature Name 32
  Double,                                 !- Feature Data Type 32
  67.996785714285721,                     !- Feature Value 32
  EPWDesignDehumidHumidityRatio,          !- Feature Name 33
  Double,                                 !- Feature Data Type 33
  0.012133744170488724,                   !- Feature Value 33
  EPWDesignCoolingDirectNormal,           !- Feature Name 34
  Double,                                 !- Feature Data Type 34
  985,                                    !- Feature Value 34
  EPWDesignCoolingDiffuseHorizontal,      !- Feature Name 35
  Double,                                 !- Feature Data Type 35
  84;                                     !- Feature Value 35

OS:Site,
  {d15c32ec-c7ce-4e14-8ad0-f55817f6a59c}, !- Handle
  Denver Intl Ap_CO_USA,                  !- Name
  39.83,                                  !- Latitude {deg}
  -104.65,                                !- Longitude {deg}
  -7,                                     !- Time Zone {hr}
  1650,                                   !- Elevation {m}
  Suburbs;                                !- Terrain

OS:ClimateZones,
  {eb2226c9-fbc1-4845-acd4-cb3daf6d1724}, !- Handle
  ,                                       !- Active Institution
  ,                                       !- Active Year
  ,                                       !- Climate Zone Institution Name 1
  ,                                       !- Climate Zone Document Name 1
  ,                                       !- Climate Zone Document Year 1
  ,                                       !- Climate Zone Value 1
  Building America,                       !- Climate Zone Institution Name 2
  ,                                       !- Climate Zone Document Name 2
  0,                                      !- Climate Zone Document Year 2
  Cold;                                   !- Climate Zone Value 2

OS:Site:WaterMainsTemperature,
  {1859b339-ccdb-441b-bfad-0455d07b36e7}, !- Handle
  Correlation,                            !- Calculation Method
  ,                                       !- Temperature Schedule Name
  10.8753424657535,                       !- Annual Average Outdoor Air Temperature {C}
  23.1524007936508;                       !- Maximum Difference In Monthly Average Outdoor Air Temperatures {deltaC}

OS:RunPeriodControl:DaylightSavingTime,
  {1444bad3-44e2-4b12-8564-1c2cc5e0f4f9}, !- Handle
  4/7,                                    !- Start Date
  10/26;                                  !- End Date

OS:Site:GroundTemperature:Deep,
  {38c19a3b-4ba1-4bf6-9a5e-58aca51feaf6}, !- Handle
  10.8753424657535,                       !- January Deep Ground Temperature {C}
  10.8753424657535,                       !- February Deep Ground Temperature {C}
  10.8753424657535,                       !- March Deep Ground Temperature {C}
  10.8753424657535,                       !- April Deep Ground Temperature {C}
  10.8753424657535,                       !- May Deep Ground Temperature {C}
  10.8753424657535,                       !- June Deep Ground Temperature {C}
  10.8753424657535,                       !- July Deep Ground Temperature {C}
  10.8753424657535,                       !- August Deep Ground Temperature {C}
  10.8753424657535,                       !- September Deep Ground Temperature {C}
  10.8753424657535,                       !- October Deep Ground Temperature {C}
  10.8753424657535,                       !- November Deep Ground Temperature {C}
  10.8753424657535;                       !- December Deep Ground Temperature {C}

OS:ThermalZone,
  {87889673-a68e-42e2-8894-7826320c4de1}, !- Handle
  living zone,                            !- Name
  ,                                       !- Multiplier
  ,                                       !- Ceiling Height {m}
  ,                                       !- Volume {m3}
  ,                                       !- Floor Area {m2}
  ,                                       !- Zone Inside Convection Algorithm
  ,                                       !- Zone Outside Convection Algorithm
  ,                                       !- Zone Conditioning Equipment List Name
  {e93ca80b-f224-491c-aa36-7b47a4a426c0}, !- Zone Air Inlet Port List
  {61b753b8-4b08-429a-9553-9e2930007ce9}, !- Zone Air Exhaust Port List
  {dcec2590-386b-48ae-96b2-eaf79f90b3cc}, !- Zone Air Node Name
  {5a39488b-7f4a-48ac-a05e-5e95a50f8241}, !- Zone Return Air Port List
  ,                                       !- Primary Daylighting Control Name
  ,                                       !- Fraction of Zone Controlled by Primary Daylighting Control
  ,                                       !- Secondary Daylighting Control Name
  ,                                       !- Fraction of Zone Controlled by Secondary Daylighting Control
  ,                                       !- Illuminance Map Name
  ,                                       !- Group Rendering Name
  {7deac7fb-9aa2-4693-8f9c-24f72f1900b5}, !- Thermostat Name
  No;                                     !- Use Ideal Air Loads

OS:Node,
  {889560f5-21a8-4fd1-ada8-e81f280ff9f9}, !- Handle
  Node 1,                                 !- Name
  {dcec2590-386b-48ae-96b2-eaf79f90b3cc}, !- Inlet Port
  ;                                       !- Outlet Port

OS:Connection,
  {dcec2590-386b-48ae-96b2-eaf79f90b3cc}, !- Handle
  {377aa549-c914-46db-849a-1a46f03fb3bd}, !- Name
  {87889673-a68e-42e2-8894-7826320c4de1}, !- Source Object
  11,                                     !- Outlet Port
  {889560f5-21a8-4fd1-ada8-e81f280ff9f9}, !- Target Object
  2;                                      !- Inlet Port

OS:PortList,
  {e93ca80b-f224-491c-aa36-7b47a4a426c0}, !- Handle
  {17fbadfa-3a14-4c58-b8a2-d4e0f1328a1d}, !- Name
  {87889673-a68e-42e2-8894-7826320c4de1}, !- HVAC Component
  {39ac4ef4-daaf-4e98-b4d1-43047b3a3894}; !- Port 1

OS:PortList,
  {61b753b8-4b08-429a-9553-9e2930007ce9}, !- Handle
  {a1461c09-db73-406f-8fbd-d2f551921863}, !- Name
  {87889673-a68e-42e2-8894-7826320c4de1}, !- HVAC Component
  {223cb0c9-53f0-451d-84ec-b5579eaac377}; !- Port 1

OS:PortList,
  {5a39488b-7f4a-48ac-a05e-5e95a50f8241}, !- Handle
  {feb673b3-5a6d-4acf-863c-da97312c832d}, !- Name
  {87889673-a68e-42e2-8894-7826320c4de1}; !- HVAC Component

OS:Sizing:Zone,
  {a197db04-1d7f-49a7-b9c0-9d2432bdedc6}, !- Handle
  {87889673-a68e-42e2-8894-7826320c4de1}, !- Zone or ZoneList Name
  SupplyAirTemperature,                   !- Zone Cooling Design Supply Air Temperature Input Method
  14,                                     !- Zone Cooling Design Supply Air Temperature {C}
  11.11,                                  !- Zone Cooling Design Supply Air Temperature Difference {deltaC}
  SupplyAirTemperature,                   !- Zone Heating Design Supply Air Temperature Input Method
  40,                                     !- Zone Heating Design Supply Air Temperature {C}
  11.11,                                  !- Zone Heating Design Supply Air Temperature Difference {deltaC}
  0.0085,                                 !- Zone Cooling Design Supply Air Humidity Ratio {kg-H2O/kg-air}
  0.008,                                  !- Zone Heating Design Supply Air Humidity Ratio {kg-H2O/kg-air}
  ,                                       !- Zone Heating Sizing Factor
  ,                                       !- Zone Cooling Sizing Factor
  DesignDay,                              !- Cooling Design Air Flow Method
  ,                                       !- Cooling Design Air Flow Rate {m3/s}
  ,                                       !- Cooling Minimum Air Flow per Zone Floor Area {m3/s-m2}
  ,                                       !- Cooling Minimum Air Flow {m3/s}
  ,                                       !- Cooling Minimum Air Flow Fraction
  DesignDay,                              !- Heating Design Air Flow Method
  ,                                       !- Heating Design Air Flow Rate {m3/s}
  ,                                       !- Heating Maximum Air Flow per Zone Floor Area {m3/s-m2}
  ,                                       !- Heating Maximum Air Flow {m3/s}
  ,                                       !- Heating Maximum Air Flow Fraction
  ,                                       !- Design Zone Air Distribution Effectiveness in Cooling Mode
  ,                                       !- Design Zone Air Distribution Effectiveness in Heating Mode
  No,                                     !- Account for Dedicated Outdoor Air System
  NeutralSupplyAir,                       !- Dedicated Outdoor Air System Control Strategy
  autosize,                               !- Dedicated Outdoor Air Low Setpoint Temperature for Design {C}
  autosize;                               !- Dedicated Outdoor Air High Setpoint Temperature for Design {C}

OS:ZoneHVAC:EquipmentList,
  {cd2c7122-b3ba-44be-9454-8b3247037222}, !- Handle
  Zone HVAC Equipment List 1,             !- Name
  {87889673-a68e-42e2-8894-7826320c4de1}, !- Thermal Zone
  SequentialLoad,                         !- Load Distribution Scheme
  {8fd1fe27-0812-4970-9ba3-10918506d4c0}, !- Zone Equipment 1
  1,                                      !- Zone Equipment Cooling Sequence 1
  1,                                      !- Zone Equipment Heating or No-Load Sequence 1
  ,                                       !- Zone Equipment Sequential Cooling Fraction 1
  ,                                       !- Zone Equipment Sequential Heating Fraction 1
  {f259f690-cdf7-4958-9820-7ddb835c982e}, !- Zone Equipment 2
  2,                                      !- Zone Equipment Cooling Sequence 2
  2,                                      !- Zone Equipment Heating or No-Load Sequence 2
  ,                                       !- Zone Equipment Sequential Cooling Fraction 2
  ;                                       !- Zone Equipment Sequential Heating Fraction 2

OS:ThermalZone,
  {25d44606-a868-42c5-9fff-4a2920c57b7a}, !- Handle
  garage zone,                            !- Name
  ,                                       !- Multiplier
  ,                                       !- Ceiling Height {m}
  ,                                       !- Volume {m3}
  ,                                       !- Floor Area {m2}
  ,                                       !- Zone Inside Convection Algorithm
  ,                                       !- Zone Outside Convection Algorithm
  ,                                       !- Zone Conditioning Equipment List Name
  {daae0841-d79e-473f-b446-a671fff06814}, !- Zone Air Inlet Port List
  {0ed47c79-b2f9-4835-9d9d-eaa8d157eee0}, !- Zone Air Exhaust Port List
  {9096733a-bdb4-429e-b909-b3e59b45e4f0}, !- Zone Air Node Name
  {12cb6d5c-b33f-44e3-a3fd-afef8328054a}, !- Zone Return Air Port List
  ,                                       !- Primary Daylighting Control Name
  ,                                       !- Fraction of Zone Controlled by Primary Daylighting Control
  ,                                       !- Secondary Daylighting Control Name
  ,                                       !- Fraction of Zone Controlled by Secondary Daylighting Control
  ,                                       !- Illuminance Map Name
  ,                                       !- Group Rendering Name
  ,                                       !- Thermostat Name
  No;                                     !- Use Ideal Air Loads

OS:Node,
  {a0e0d755-376e-4e22-9019-0aa51a9665bb}, !- Handle
  Node 2,                                 !- Name
  {9096733a-bdb4-429e-b909-b3e59b45e4f0}, !- Inlet Port
  ;                                       !- Outlet Port

OS:Connection,
  {9096733a-bdb4-429e-b909-b3e59b45e4f0}, !- Handle
  {376bf843-7bb6-46d2-af3f-f23d503670f4}, !- Name
  {25d44606-a868-42c5-9fff-4a2920c57b7a}, !- Source Object
  11,                                     !- Outlet Port
  {a0e0d755-376e-4e22-9019-0aa51a9665bb}, !- Target Object
  2;                                      !- Inlet Port

OS:PortList,
  {daae0841-d79e-473f-b446-a671fff06814}, !- Handle
  {d525f217-4da4-4cf1-873d-00572d2ca49e}, !- Name
  {25d44606-a868-42c5-9fff-4a2920c57b7a}; !- HVAC Component

OS:PortList,
  {0ed47c79-b2f9-4835-9d9d-eaa8d157eee0}, !- Handle
  {131850e5-9c4d-4bb9-ab7d-820ca2d69a03}, !- Name
  {25d44606-a868-42c5-9fff-4a2920c57b7a}; !- HVAC Component

OS:PortList,
  {12cb6d5c-b33f-44e3-a3fd-afef8328054a}, !- Handle
  {12633f63-f1ec-4217-a272-0c59887020f1}, !- Name
  {25d44606-a868-42c5-9fff-4a2920c57b7a}; !- HVAC Component

OS:Sizing:Zone,
  {abfdba90-a2eb-400a-8399-bdaed8d01de8}, !- Handle
  {25d44606-a868-42c5-9fff-4a2920c57b7a}, !- Zone or ZoneList Name
  SupplyAirTemperature,                   !- Zone Cooling Design Supply Air Temperature Input Method
  14,                                     !- Zone Cooling Design Supply Air Temperature {C}
  11.11,                                  !- Zone Cooling Design Supply Air Temperature Difference {deltaC}
  SupplyAirTemperature,                   !- Zone Heating Design Supply Air Temperature Input Method
  40,                                     !- Zone Heating Design Supply Air Temperature {C}
  11.11,                                  !- Zone Heating Design Supply Air Temperature Difference {deltaC}
  0.0085,                                 !- Zone Cooling Design Supply Air Humidity Ratio {kg-H2O/kg-air}
  0.008,                                  !- Zone Heating Design Supply Air Humidity Ratio {kg-H2O/kg-air}
  ,                                       !- Zone Heating Sizing Factor
  ,                                       !- Zone Cooling Sizing Factor
  DesignDay,                              !- Cooling Design Air Flow Method
  ,                                       !- Cooling Design Air Flow Rate {m3/s}
  ,                                       !- Cooling Minimum Air Flow per Zone Floor Area {m3/s-m2}
  ,                                       !- Cooling Minimum Air Flow {m3/s}
  ,                                       !- Cooling Minimum Air Flow Fraction
  DesignDay,                              !- Heating Design Air Flow Method
  ,                                       !- Heating Design Air Flow Rate {m3/s}
  ,                                       !- Heating Maximum Air Flow per Zone Floor Area {m3/s-m2}
  ,                                       !- Heating Maximum Air Flow {m3/s}
  ,                                       !- Heating Maximum Air Flow Fraction
  ,                                       !- Design Zone Air Distribution Effectiveness in Cooling Mode
  ,                                       !- Design Zone Air Distribution Effectiveness in Heating Mode
  No,                                     !- Account for Dedicated Outdoor Air System
  NeutralSupplyAir,                       !- Dedicated Outdoor Air System Control Strategy
  autosize,                               !- Dedicated Outdoor Air Low Setpoint Temperature for Design {C}
  autosize;                               !- Dedicated Outdoor Air High Setpoint Temperature for Design {C}

OS:ZoneHVAC:EquipmentList,
  {7e3a0079-3d8d-4d6f-81fe-f3c2e5dac6ae}, !- Handle
  Zone HVAC Equipment List 2,             !- Name
  {25d44606-a868-42c5-9fff-4a2920c57b7a}; !- Thermal Zone

OS:Space,
  {667e326b-c52b-40eb-9f35-e9a1e2249061}, !- Handle
  garage space,                           !- Name
  {9540d844-a84c-4233-a076-03bc67befaa1}, !- Space Type Name
  ,                                       !- Default Construction Set Name
  ,                                       !- Default Schedule Set Name
  -0,                                     !- Direction of Relative North {deg}
  0,                                      !- X Origin {m}
  0,                                      !- Y Origin {m}
  0,                                      !- Z Origin {m}
  ,                                       !- Building Story Name
  {25d44606-a868-42c5-9fff-4a2920c57b7a}; !- Thermal Zone Name

OS:Surface,
  {6ce7b37c-ae8a-47ba-9397-ce55e316e548}, !- Handle
  Surface 1,                              !- Name
  Floor,                                  !- Surface Type
  {ad8bea98-358d-4435-ab65-340290e78396}, !- Construction Name
  {667e326b-c52b-40eb-9f35-e9a1e2249061}, !- Space Name
  Foundation,                             !- Outside Boundary Condition
  {bee83a8d-d83d-4f9b-a0a8-5374f8907b5e}, !- Outside Boundary Condition Object
  NoSun,                                  !- Sun Exposure
  NoWind,                                 !- Wind Exposure
  ,                                       !- View Factor to Ground
  ,                                       !- Number of Vertices
  10.1737390518778, -3.6576, 0,           !- X,Y,Z Vertex 1 {m}
  10.1737390518778, 3.6576, 0,            !- X,Y,Z Vertex 2 {m}
  13.8313390518778, 3.6576, 0,            !- X,Y,Z Vertex 3 {m}
  13.8313390518778, -3.6576, 0;           !- X,Y,Z Vertex 4 {m}

OS:Surface,
  {0c9f13cb-765c-4fde-8c5b-ec4207a790a9}, !- Handle
  Surface 2,                              !- Name
  Wall,                                   !- Surface Type
  {c5d9dba1-0d95-41e7-99f0-8140b336789b}, !- Construction Name
  {667e326b-c52b-40eb-9f35-e9a1e2249061}, !- Space Name
  Surface,                                !- Outside Boundary Condition
  {54f56fd2-d911-4e33-8e9a-625a2b4d1e9e}, !- Outside Boundary Condition Object
  NoSun,                                  !- Sun Exposure
  NoWind,                                 !- Wind Exposure
  ,                                       !- View Factor to Ground
  ,                                       !- Number of Vertices
  10.1737390518778, 3.6576, 2.4384,       !- X,Y,Z Vertex 1 {m}
  10.1737390518778, 3.6576, 0,            !- X,Y,Z Vertex 2 {m}
  10.1737390518778, 0, 0,                 !- X,Y,Z Vertex 3 {m}
  10.1737390518778, 0, 2.4384;            !- X,Y,Z Vertex 4 {m}

OS:Surface,
  {48b035c1-7df7-4c34-b5c9-f6250d723b1d}, !- Handle
  Surface 3,                              !- Name
  Wall,                                   !- Surface Type
  {c5d9dba1-0d95-41e7-99f0-8140b336789b}, !- Construction Name
  {667e326b-c52b-40eb-9f35-e9a1e2249061}, !- Space Name
  Surface,                                !- Outside Boundary Condition
  {2b1ce169-f15c-43a9-aaff-b94f3f8cc642}, !- Outside Boundary Condition Object
  NoSun,                                  !- Sun Exposure
  NoWind,                                 !- Wind Exposure
  ,                                       !- View Factor to Ground
  ,                                       !- Number of Vertices
  13.8313390518778, 3.6576, 2.4384,       !- X,Y,Z Vertex 1 {m}
  13.8313390518778, 3.6576, 0,            !- X,Y,Z Vertex 2 {m}
  10.1737390518778, 3.6576, 0,            !- X,Y,Z Vertex 3 {m}
  10.1737390518778, 3.6576, 2.4384;       !- X,Y,Z Vertex 4 {m}

OS:Surface,
  {21b5ec23-f3a9-4b54-b5ed-1562c34a7cd2}, !- Handle
  Surface 4,                              !- Name
  Wall,                                   !- Surface Type
  {ffaa9748-fbe8-4674-8340-e2341ff94781}, !- Construction Name
  {667e326b-c52b-40eb-9f35-e9a1e2249061}, !- Space Name
  Outdoors,                               !- Outside Boundary Condition
  ,                                       !- Outside Boundary Condition Object
  SunExposed,                             !- Sun Exposure
  WindExposed,                            !- Wind Exposure
  ,                                       !- View Factor to Ground
  ,                                       !- Number of Vertices
  13.8313390518778, -3.6576, 2.4384,      !- X,Y,Z Vertex 1 {m}
  13.8313390518778, -3.6576, 0,           !- X,Y,Z Vertex 2 {m}
  13.8313390518778, 3.6576, 0,            !- X,Y,Z Vertex 3 {m}
  13.8313390518778, 3.6576, 2.4384;       !- X,Y,Z Vertex 4 {m}

OS:Surface,
  {35ee2ebc-946d-48c5-adb3-04ab71f88ac1}, !- Handle