!- NOTE: Auto-generated from /test/osw_files/SFD_2000sqft_2story_FB_UA_Denver_ASHP.osw

OS:Version,
  {f205d5df-3e0e-4809-b9be-90c9dae8d046}, !- Handle
  2.8.1;                                  !- Version Identifier

OS:SimulationControl,
  {dd21c5e5-4939-449e-a4e4-25294dd45e15}, !- Handle
  ,                                       !- Do Zone Sizing Calculation
  ,                                       !- Do System Sizing Calculation
  ,                                       !- Do Plant Sizing Calculation
  No;                                     !- Run Simulation for Sizing Periods

OS:Timestep,
  {7eb89676-d33c-4f25-9df1-845ee4193dd6}, !- Handle
  6;                                      !- Number of Timesteps per Hour

OS:ShadowCalculation,
  {c8b9817d-c5b7-4c5a-b9dc-a80e4f3d6297}, !- Handle
  20,                                     !- Calculation Frequency
  200;                                    !- Maximum Figures in Shadow Overlap Calculations

OS:SurfaceConvectionAlgorithm:Outside,
  {f87f7208-0f21-4d2c-b7d0-8ed31ec34317}, !- Handle
  DOE-2;                                  !- Algorithm

OS:SurfaceConvectionAlgorithm:Inside,
  {60e45660-c9f5-4f23-a3a2-46ddfc039682}, !- Handle
  TARP;                                   !- Algorithm

OS:ZoneCapacitanceMultiplier:ResearchSpecial,
  {d9e06b5c-80e5-498e-b5f9-47bf09b10aba}, !- Handle
  ,                                       !- Temperature Capacity Multiplier
  15,                                     !- Humidity Capacity Multiplier
  ;                                       !- Carbon Dioxide Capacity Multiplier

OS:RunPeriod,
  {4992e048-7dfc-4b2b-bf9e-b61fa6815c30}, !- Handle
  Run Period 1,                           !- Name
  1,                                      !- Begin Month
  1,                                      !- Begin Day of Month
  12,                                     !- End Month
  31,                                     !- End Day of Month
  ,                                       !- Use Weather File Holidays and Special Days
  ,                                       !- Use Weather File Daylight Saving Period
  ,                                       !- Apply Weekend Holiday Rule
  ,                                       !- Use Weather File Rain Indicators
  ,                                       !- Use Weather File Snow Indicators
  ;                                       !- Number of Times Runperiod to be Repeated

OS:YearDescription,
  {c98f19af-9975-4238-8f82-1195f6b9e5c3}, !- Handle
  2007,                                   !- Calendar Year
  ,                                       !- Day of Week for Start Day
  ;                                       !- Is Leap Year

OS:ThermalZone,
  {86ef7902-5c41-4b53-9297-fcbcceb0e2d9}, !- Handle
  living zone,                            !- Name
  ,                                       !- Multiplier
  ,                                       !- Ceiling Height {m}
  ,                                       !- Volume {m3}
  ,                                       !- Floor Area {m2}
  ,                                       !- Zone Inside Convection Algorithm
  ,                                       !- Zone Outside Convection Algorithm
  ,                                       !- Zone Conditioning Equipment List Name
  {570a119a-f231-47c5-bcd9-5e890cf2efe7}, !- Zone Air Inlet Port List
  {d9563d8c-4a0c-4dfe-9cb5-14c56240cea9}, !- Zone Air Exhaust Port List
  {c04c4529-ae8e-444e-9193-bf44658dcbdf}, !- Zone Air Node Name
  {f8f2d6e0-169f-45bc-a507-770b79291652}, !- Zone Return Air Port List
  ,                                       !- Primary Daylighting Control Name
  ,                                       !- Fraction of Zone Controlled by Primary Daylighting Control
  ,                                       !- Secondary Daylighting Control Name
  ,                                       !- Fraction of Zone Controlled by Secondary Daylighting Control
  ,                                       !- Illuminance Map Name
  ,                                       !- Group Rendering Name
  {d9858e6f-d53b-40f2-9e48-4f1b0e50c58a}, !- Thermostat Name
  No;                                     !- Use Ideal Air Loads

OS:Node,
  {96f4b3a1-5bea-4361-ba6c-6e98f4820c13}, !- Handle
  Node 1,                                 !- Name
  {c04c4529-ae8e-444e-9193-bf44658dcbdf}, !- Inlet Port
  ;                                       !- Outlet Port

OS:Connection,
  {c04c4529-ae8e-444e-9193-bf44658dcbdf}, !- Handle
  {b95bd993-a8e7-4790-828e-d27dcf29c762}, !- Name
  {86ef7902-5c41-4b53-9297-fcbcceb0e2d9}, !- Source Object
  11,                                     !- Outlet Port
  {96f4b3a1-5bea-4361-ba6c-6e98f4820c13}, !- Target Object
  2;                                      !- Inlet Port

OS:PortList,
  {570a119a-f231-47c5-bcd9-5e890cf2efe7}, !- Handle
  {6bd129e4-aedf-4c68-8b31-cdb63c20f66c}, !- Name
  {86ef7902-5c41-4b53-9297-fcbcceb0e2d9}, !- HVAC Component
  {8d4e82b6-4b3b-4e11-a451-c31737f84a2c}, !- Port 1
  {54030248-b9f7-4804-ba20-970161eb51af}; !- Port 2

OS:PortList,
  {d9563d8c-4a0c-4dfe-9cb5-14c56240cea9}, !- Handle
  {b9a4e00d-f68b-4cfe-8239-13b8a10d69a8}, !- Name
  {86ef7902-5c41-4b53-9297-fcbcceb0e2d9}; !- HVAC Component

OS:PortList,
  {f8f2d6e0-169f-45bc-a507-770b79291652}, !- Handle
  {00f9f47b-26d5-42a2-8110-4234c3ce06e6}, !- Name
  {86ef7902-5c41-4b53-9297-fcbcceb0e2d9}, !- HVAC Component
  {4c822219-5ce5-46cc-b72f-f43dcf5ef7bc}, !- Port 1
  {a0ef2ae0-5c5f-4da9-8ef1-4e265ba0e808}; !- Port 2

OS:Sizing:Zone,
  {9e0e8fd7-29bd-4f5d-894d-3a63777c80d7}, !- Handle
  {86ef7902-5c41-4b53-9297-fcbcceb0e2d9}, !- Zone or ZoneList Name
  SupplyAirTemperature,                   !- Zone Cooling Design Supply Air Temperature Input Method
  14,                                     !- Zone Cooling Design Supply Air Temperature {C}
  11.11,                                  !- Zone Cooling Design Supply Air Temperature Difference {deltaC}
  SupplyAirTemperature,                   !- Zone Heating Design Supply Air Temperature Input Method
  40,                                     !- Zone Heating Design Supply Air Temperature {C}
  11.11,                                  !- Zone Heating Design Supply Air Temperature Difference {deltaC}
  0.0085,                                 !- Zone Cooling Design Supply Air Humidity Ratio {kg-H2O/kg-air}
  0.008,                                  !- Zone Heating Design Supply Air Humidity Ratio {kg-H2O/kg-air}
  ,                                       !- Zone Heating Sizing Factor
  ,                                       !- Zone Cooling Sizing Factor
  DesignDay,                              !- Cooling Design Air Flow Method
  ,                                       !- Cooling Design Air Flow Rate {m3/s}
  ,                                       !- Cooling Minimum Air Flow per Zone Floor Area {m3/s-m2}
  ,                                       !- Cooling Minimum Air Flow {m3/s}
  ,                                       !- Cooling Minimum Air Flow Fraction
  DesignDay,                              !- Heating Design Air Flow Method
  ,                                       !- Heating Design Air Flow Rate {m3/s}
  ,                                       !- Heating Maximum Air Flow per Zone Floor Area {m3/s-m2}
  ,                                       !- Heating Maximum Air Flow {m3/s}
  ,                                       !- Heating Maximum Air Flow Fraction
  ,                                       !- Design Zone Air Distribution Effectiveness in Cooling Mode
  ,                                       !- Design Zone Air Distribution Effectiveness in Heating Mode
  No,                                     !- Account for Dedicated Outdoor Air System
  NeutralSupplyAir,                       !- Dedicated Outdoor Air System Control Strategy
  autosize,                               !- Dedicated Outdoor Air Low Setpoint Temperature for Design {C}
  autosize;                               !- Dedicated Outdoor Air High Setpoint Temperature for Design {C}

OS:ZoneHVAC:EquipmentList,
  {22e4e74c-b658-4c28-985f-406fda86e883}, !- Handle
  Zone HVAC Equipment List 1,             !- Name
  {86ef7902-5c41-4b53-9297-fcbcceb0e2d9}, !- Thermal Zone
  SequentialLoad,                         !- Load Distribution Scheme
  {b7ee38a4-714e-4b13-a405-e70bd8c2b69f}, !- Zone Equipment 1
  1,                                      !- Zone Equipment Cooling Sequence 1
  1,                                      !- Zone Equipment Heating or No-Load Sequence 1
  ,                                       !- Zone Equipment Sequential Cooling Fraction 1
  ,                                       !- Zone Equipment Sequential Heating Fraction 1
  {8bf5b3a2-1f0f-420d-9959-c999f58efa90}, !- Zone Equipment 2
  2,                                      !- Zone Equipment Cooling Sequence 2
  2,                                      !- Zone Equipment Heating or No-Load Sequence 2
  ,                                       !- Zone Equipment Sequential Cooling Fraction 2
  ;                                       !- Zone Equipment Sequential Heating Fraction 2

OS:ThermalZone,
  {6d95d1b4-8cf1-4f40-b35a-7763d2ade4de}, !- Handle
  garage zone,                            !- Name
  ,                                       !- Multiplier
  ,                                       !- Ceiling Height {m}
  ,                                       !- Volume {m3}
  ,                                       !- Floor Area {m2}
  ,                                       !- Zone Inside Convection Algorithm
  ,                                       !- Zone Outside Convection Algorithm
  ,                                       !- Zone Conditioning Equipment List Name
  {be7a0a47-5169-489e-83d5-11653d148277}, !- Zone Air Inlet Port List
  {05a4ec66-950d-4a12-8b0c-355315d30af3}, !- Zone Air Exhaust Port List
  {9b88fdc8-f4fb-4843-bb0b-2b02f8015983}, !- Zone Air Node Name
  {9a60c14e-c66b-46df-8885-9d2c8cc43647}, !- Zone Return Air Port List
  ,                                       !- Primary Daylighting Control Name
  ,                                       !- Fraction of Zone Controlled by Primary Daylighting Control
  ,                                       !- Secondary Daylighting Control Name
  ,                                       !- Fraction of Zone Controlled by Secondary Daylighting Control
  ,                                       !- Illuminance Map Name
  ,                                       !- Group Rendering Name
  ,                                       !- Thermostat Name
  No;                                     !- Use Ideal Air Loads

OS:Node,
  {54776ff6-ac19-4685-a6c8-49269389b752}, !- Handle
  Node 2,                                 !- Name
  {9b88fdc8-f4fb-4843-bb0b-2b02f8015983}, !- Inlet Port
  ;                                       !- Outlet Port

OS:Connection,
  {9b88fdc8-f4fb-4843-bb0b-2b02f8015983}, !- Handle
  {d639d082-04bc-4594-9f7a-8207f8580beb}, !- Name
  {6d95d1b4-8cf1-4f40-b35a-7763d2ade4de}, !- Source Object
  11,                                     !- Outlet Port
  {54776ff6-ac19-4685-a6c8-49269389b752}, !- Target Object
  2;                                      !- Inlet Port

OS:PortList,
  {be7a0a47-5169-489e-83d5-11653d148277}, !- Handle
  {6fc33d08-834a-43e6-834e-a0acf7ca17ae}, !- Name
  {6d95d1b4-8cf1-4f40-b35a-7763d2ade4de}; !- HVAC Component

OS:PortList,
  {05a4ec66-950d-4a12-8b0c-355315d30af3}, !- Handle
  {72ad4056-0a89-4c87-a23e-c9d5822e009f}, !- Name
  {6d95d1b4-8cf1-4f40-b35a-7763d2ade4de}; !- HVAC Component

OS:PortList,
  {9a60c14e-c66b-46df-8885-9d2c8cc43647}, !- Handle
  {f44350d5-f1cc-471c-a36c-6d7aa71d34df}, !- Name
  {6d95d1b4-8cf1-4f40-b35a-7763d2ade4de}; !- HVAC Component

OS:Sizing:Zone,
  {2db7e229-77e3-4e5c-b169-368af02a3880}, !- Handle
  {6d95d1b4-8cf1-4f40-b35a-7763d2ade4de}, !- Zone or ZoneList Name
  SupplyAirTemperature,                   !- Zone Cooling Design Supply Air Temperature Input Method
  14,                                     !- Zone Cooling Design Supply Air Temperature {C}
  11.11,                                  !- Zone Cooling Design Supply Air Temperature Difference {deltaC}
  SupplyAirTemperature,                   !- Zone Heating Design Supply Air Temperature Input Method
  40,                                     !- Zone Heating Design Supply Air Temperature {C}
  11.11,                                  !- Zone Heating Design Supply Air Temperature Difference {deltaC}
  0.0085,                                 !- Zone Cooling Design Supply Air Humidity Ratio {kg-H2O/kg-air}
  0.008,                                  !- Zone Heating Design Supply Air Humidity Ratio {kg-H2O/kg-air}
  ,                                       !- Zone Heating Sizing Factor
  ,                                       !- Zone Cooling Sizing Factor
  DesignDay,                              !- Cooling Design Air Flow Method
  ,                                       !- Cooling Design Air Flow Rate {m3/s}
  ,                                       !- Cooling Minimum Air Flow per Zone Floor Area {m3/s-m2}
  ,                                       !- Cooling Minimum Air Flow {m3/s}
  ,                                       !- Cooling Minimum Air Flow Fraction
  DesignDay,                              !- Heating Design Air Flow Method
  ,                                       !- Heating Design Air Flow Rate {m3/s}
  ,                                       !- Heating Maximum Air Flow per Zone Floor Area {m3/s-m2}
  ,                                       !- Heating Maximum Air Flow {m3/s}
  ,                                       !- Heating Maximum Air Flow Fraction
  ,                                       !- Design Zone Air Distribution Effectiveness in Cooling Mode
  ,                                       !- Design Zone Air Distribution Effectiveness in Heating Mode
  No,                                     !- Account for Dedicated Outdoor Air System
  NeutralSupplyAir,                       !- Dedicated Outdoor Air System Control Strategy
  autosize,                               !- Dedicated Outdoor Air Low Setpoint Temperature for Design {C}
  autosize;                               !- Dedicated Outdoor Air High Setpoint Temperature for Design {C}

OS:ZoneHVAC:EquipmentList,
  {059bc275-a70a-4ed0-86ce-d27eca06d6ff}, !- Handle
  Zone HVAC Equipment List 2,             !- Name
  {6d95d1b4-8cf1-4f40-b35a-7763d2ade4de}; !- Thermal Zone

OS:Space,
  {041465eb-82ed-4b94-8f3d-678218779ae6}, !- Handle
  garage space,                           !- Name
  {2809ac47-116d-4035-96c9-7f892727d489}, !- Space Type Name
  ,                                       !- Default Construction Set Name
  ,                                       !- Default Schedule Set Name
  -0,                                     !- Direction of Relative North {deg}
  0,                                      !- X Origin {m}
  0,                                      !- Y Origin {m}
  0,                                      !- Z Origin {m}
  ,                                       !- Building Story Name
  {6d95d1b4-8cf1-4f40-b35a-7763d2ade4de}; !- Thermal Zone Name

OS:Surface,
  {066164d6-3f65-4623-8a56-d9742e3fbe51}, !- Handle
  Surface 1,                              !- Name
  Floor,                                  !- Surface Type
  ,                                       !- Construction Name
  {041465eb-82ed-4b94-8f3d-678218779ae6}, !- Space Name
  Foundation,                             !- Outside Boundary Condition
  ,                                       !- Outside Boundary Condition Object
  NoSun,                                  !- Sun Exposure
  NoWind,                                 !- Wind Exposure
  ,                                       !- View Factor to Ground
  ,                                       !- Number of Vertices
  5.57695129776527, -3.048, 0,            !- X,Y,Z Vertex 1 {m}
  5.57695129776527, 3.048, 0,             !- X,Y,Z Vertex 2 {m}
  11.6729512977653, 3.048, 0,             !- X,Y,Z Vertex 3 {m}
  11.6729512977653, -3.048, 0;            !- X,Y,Z Vertex 4 {m}

OS:Surface,
  {eeba8753-4894-4f7e-89a4-1ab255df3ef6}, !- Handle
  Surface 2,                              !- Name
  Wall,                                   !- Surface Type
  ,                                       !- Construction Name
  {041465eb-82ed-4b94-8f3d-678218779ae6}, !- Space Name
  Surface,                                !- Outside Boundary Condition
  {a2710cc4-ad93-477a-b4f1-f594c8ef91f2}, !- Outside Boundary Condition Object
  NoSun,                                  !- Sun Exposure
  NoWind,                                 !- Wind Exposure
  ,                                       !- View Factor to Ground
  ,                                       !- Number of Vertices
  5.57695129776527, 3.048, 2.4384,        !- X,Y,Z Vertex 1 {m}
  5.57695129776527, 3.048, 0,             !- X,Y,Z Vertex 2 {m}
  5.57695129776527, 0, 0,                 !- X,Y,Z Vertex 3 {m}
  5.57695129776527, 0, 2.4384;            !- X,Y,Z Vertex 4 {m}

OS:Surface,
  {f5ac56ab-12bb-4301-a383-c73f6d62d814}, !- Handle
  Surface 3,                              !- Name
  Wall,                                   !- Surface Type
  ,                                       !- Construction Name
  {041465eb-82ed-4b94-8f3d-678218779ae6}, !- Space Name
  Surface,                                !- Outside Boundary Condition
  {f9adab28-df7b-4af0-ae68-f5bdf80f4c62}, !- Outside Boundary Condition Object
  NoSun,                                  !- Sun Exposure
  NoWind,                                 !- Wind Exposure
  ,                                       !- View Factor to Ground
  ,                                       !- Number of Vertices
  11.6729512977653, 3.048, 2.4384,        !- X,Y,Z Vertex 1 {m}
  11.6729512977653, 3.048, 0,             !- X,Y,Z Vertex 2 {m}
  5.57695129776527, 3.048, 0,             !- X,Y,Z Vertex 3 {m}
  5.57695129776527, 3.048, 2.4384;        !- X,Y,Z Vertex 4 {m}

OS:Surface,
  {894d2fb2-b6c8-4f52-b788-4728ee63b761}, !- Handle
  Surface 4,                              !- Name
  Wall,                                   !- Surface Type
  ,                                       !- Construction Name
  {041465eb-82ed-4b94-8f3d-678218779ae6}, !- Space Name
  Outdoors,                               !- Outside Boundary Condition
  ,                                       !- Outside Boundary Condition Object
  SunExposed,                             !- Sun Exposure
  WindExposed,                            !- Wind Exposure
  ,                                       !- View Factor to Ground
  ,                                       !- Number of Vertices
  11.6729512977653, -3.048, 2.4384,       !- X,Y,Z Vertex 1 {m}
  11.6729512977653, -3.048, 0,            !- X,Y,Z Vertex 2 {m}
  11.6729512977653, 3.048, 0,             !- X,Y,Z Vertex 3 {m}
  11.6729512977653, 3.048, 2.4384;        !- X,Y,Z Vertex 4 {m}

OS:Surface,
  {6a5a1e4e-bd97-4ebb-b036-9bc10b77d5b6}, !- Handle
  Surface 5,                              !- Name
  Wall,                                   !- Surface Type
  ,                                       !- Construction Name
  {041465eb-82ed-4b94-8f3d-678218779ae6}, !- Space Name
  Outdoors,                               !- Outside Boundary Condition
  ,                                       !- Outside Boundary Condition Object
  SunExposed,                             !- Sun Exposure
  WindExposed,                            !- Wind Exposure
  ,                                       !- View Factor to Ground
  ,                                       !- Number of Vertices
  5.57695129776527, -3.048, 2.4384,       !- X,Y,Z Vertex 1 {m}
  5.57695129776527, -3.048, 0,            !- X,Y,Z Vertex 2 {m}
  11.6729512977653, -3.048, 0,            !- X,Y,Z Vertex 3 {m}
  11.6729512977653, -3.048, 2.4384;       !- X,Y,Z Vertex 4 {m}

OS:Surface,
  {944f35f8-8de3-4ffe-959f-2babb2710af7}, !- Handle
  Surface 6,                              !- Name
  RoofCeiling,                            !- Surface Type
  ,                                       !- Construction Name
  {041465eb-82ed-4b94-8f3d-678218779ae6}, !- Space Name
  Surface,                                !- Outside Boundary Condition
  {d85af505-a330-422b-b2d4-59b8498164e8}, !- Outside Boundary Condition Object
  NoSun,                                  !- Sun Exposure
  NoWind,                                 !- Wind Exposure
  ,                                       !- View Factor to Ground
  ,                                       !- Number of Vertices
  11.6729512977653, -3.048, 2.4384,       !- X,Y,Z Vertex 1 {m}
  11.6729512977653, 3.048, 2.4384,        !- X,Y,Z Vertex 2 {m}
  5.57695129776527, 3.048, 2.4384,        !- X,Y,Z Vertex 3 {m}
  5.57695129776527, -3.048, 2.4384;       !- X,Y,Z Vertex 4 {m}

OS:SpaceType,
  {2809ac47-116d-4035-96c9-7f892727d489}, !- Handle
  Space Type 1,                           !- Name
  ,                                       !- Default Construction Set Name
  ,                                       !- Default Schedule Set Name
  ,                                       !- Group Rendering Name
  ,                                       !- Design Specification Outdoor Air Object Name
  ,                                       !- Standards Template
  ,                                       !- Standards Building Type
  garage;                                 !- Standards Space Type

OS:Space,
  {540b4c13-65c5-4d79-8430-9006c473f6dc}, !- Handle
  living space,                           !- Name
  {bed98dba-990d-449f-9483-4dc13c2c146a}, !- Space Type Name
  ,                                       !- Default Construction Set Name
  ,                                       !- Default Schedule Set Name
  -0,                                     !- Direction of Relative North {deg}
  0,                                      !- X Origin {m}
  0,                                      !- Y Origin {m}
  0,                                      !- Z Origin {m}
  ,                                       !- Building Story Name
  {86ef7902-5c41-4b53-9297-fcbcceb0e2d9}, !- Thermal Zone Name
  ,                                       !- Part of Total Floor Area
  ,                                       !- Design Specification Outdoor Air Object Name
  {27d1efb2-b043-4c01-a078-ba921561e5b8}; !- Building Unit Name

OS:Surface,
  {d72613af-5790-4ad9-8964-e30cdfa8fa0b}, !- Handle
  Surface 7,                              !- Name
  Floor,                                  !- Surface Type
  ,                                       !- Construction Name
  {540b4c13-65c5-4d79-8430-9006c473f6dc}, !- Space Name
  Surface,                                !- Outside Boundary Condition
  {1a163905-6a83-4a9a-815d-3448626a5ede}, !- Outside Boundary Condition Object
  NoSun,                                  !- Sun Exposure
  NoWind,                                 !- Wind Exposure
  ,                                       !- View Factor to Ground
  ,                                       !- Number of Vertices
  0, 0, 0,                                !- X,Y,Z Vertex 1 {m}
  0, 5.83647564888264, 0,                 !- X,Y,Z Vertex 2 {m}
  11.6729512977653, 5.83647564888264, 0,  !- X,Y,Z Vertex 3 {m}
  11.6729512977653, 3.048, 0,             !- X,Y,Z Vertex 4 {m}
  5.57695129776527, 3.048, 0,             !- X,Y,Z Vertex 5 {m}
  5.57695129776527, 0, 0;                 !- X,Y,Z Vertex 6 {m}

OS:Surface,
  {76374feb-56cc-4537-a709-a05fee00f53f}, !- Handle
  Surface 8,                              !- Name
  Wall,                                   !- Surface Type
  ,                                       !- Construction Name
  {540b4c13-65c5-4d79-8430-9006c473f6dc}, !- Space Name
  Outdoors,                               !- Outside Boundary Condition
  ,                                       !- Outside Boundary Condition Object
  SunExposed,                             !- Sun Exposure
  WindExposed,                            !- Wind Exposure
  ,                                       !- View Factor to Ground
  ,                                       !- Number of Vertices
  0, 5.83647564888264, 2.4384,            !- X,Y,Z Vertex 1 {m}
  0, 5.83647564888264, 0,                 !- X,Y,Z Vertex 2 {m}
  0, 0, 0,                                !- X,Y,Z Vertex 3 {m}
  0, 0, 2.4384;                           !- X,Y,Z Vertex 4 {m}

OS:Surface,
  {1293ec72-5e60-4eb8-b23b-6f0ebec85ff3}, !- Handle
  Surface 9,                              !- Name
  Wall,                                   !- Surface Type
  ,                                       !- Construction Name
  {540b4c13-65c5-4d79-8430-9006c473f6dc}, !- Space Name
  Outdoors,                               !- Outside Boundary Condition
  ,                                       !- Outside Boundary Condition Object
  SunExposed,                             !- Sun Exposure
  WindExposed,                            !- Wind Exposure
  ,                                       !- View Factor to Ground
  ,                                       !- Number of Vertices
  11.6729512977653, 5.83647564888264, 2.4384, !- X,Y,Z Vertex 1 {m}
  11.6729512977653, 5.83647564888264, 0,  !- X,Y,Z Vertex 2 {m}
  0, 5.83647564888264, 0,                 !- X,Y,Z Vertex 3 {m}
  0, 5.83647564888264, 2.4384;            !- X,Y,Z Vertex 4 {m}

OS:Surface,
  {8beab6a1-bc12-4a2a-9fa6-9ed55791187e}, !- Handle
  Surface 10,                             !- Name
  Wall,                                   !- Surface Type
  ,                                       !- Construction Name
  {540b4c13-65c5-4d79-8430-9006c473f6dc}, !- Space Name
  Outdoors,                               !- Outside Boundary Condition
  ,                                       !- Outside Boundary Condition Object
  SunExposed,                             !- Sun Exposure
  WindExposed,                            !- Wind Exposure
  ,                                       !- View Factor to Ground
  ,                                       !- Number of Vertices
  11.6729512977653, 3.048, 2.4384,        !- X,Y,Z Vertex 1 {m}
  11.6729512977653, 3.048, 0,             !- X,Y,Z Vertex 2 {m}
  11.6729512977653, 5.83647564888264, 0,  !- X,Y,Z Vertex 3 {m}
  11.6729512977653, 5.83647564888264, 2.4384; !- X,Y,Z Vertex 4 {m}

OS:Surface,
  {f9adab28-df7b-4af0-ae68-f5bdf80f4c62}, !- Handle
  Surface 11,                             !- Name
  Wall,                                   !- Surface Type
  ,                                       !- Construction Name
  {540b4c13-65c5-4d79-8430-9006c473f6dc}, !- Space Name
  Surface,                                !- Outside Boundary Condition
  {f5ac56ab-12bb-4301-a383-c73f6d62d814}, !- Outside Boundary Condition Object
  NoSun,                                  !- Sun Exposure
  NoWind,                                 !- Wind Exposure
  ,                                       !- View Factor to Ground
  ,                                       !- Number of Vertices
  5.57695129776527, 3.048, 2.4384,        !- X,Y,Z Vertex 1 {m}
  5.57695129776527, 3.048, 0,             !- X,Y,Z Vertex 2 {m}
  11.6729512977653, 3.048, 0,             !- X,Y,Z Vertex 3 {m}
  11.6729512977653, 3.048, 2.4384;        !- X,Y,Z Vertex 4 {m}

OS:Surface,
  {a2710cc4-ad93-477a-b4f1-f594c8ef91f2}, !- Handle
  Surface 12,                             !- Name
  Wall,                                   !- Surface Type
  ,                                       !- Construction Name
  {540b4c13-65c5-4d79-8430-9006c473f6dc}, !- Space Name
  Surface,                                !- Outside Boundary Condition
  {eeba8753-4894-4f7e-89a4-1ab255df3ef6}, !- Outside Boundary Condition Object
  NoSun,                                  !- Sun Exposure
  NoWind,                                 !- Wind Exposure
  ,                                       !- View Factor to Ground
  ,                                       !- Number of Vertices
  5.57695129776527, 0, 2.4384,            !- X,Y,Z Vertex 1 {m}
  5.57695129776527, 0, 0,                 !- X,Y,Z Vertex 2 {m}
  5.57695129776527, 3.048, 0,             !- X,Y,Z Vertex 3 {m}
  5.57695129776527, 3.048, 2.4384;        !- X,Y,Z Vertex 4 {m}

OS:Surface,
  {5ec71c0d-d391-4d22-a692-aa02e8b77383}, !- Handle
  Surface 13,                             !- Name
  Wall,                                   !- Surface Type
  ,                                       !- Construction Name
  {540b4c13-65c5-4d79-8430-9006c473f6dc}, !- Space Name
  Outdoors,                               !- Outside Boundary Condition
  ,                                       !- Outside Boundary Condition Object
  SunExposed,                             !- Sun Exposure
  WindExposed,                            !- Wind Exposure
  ,                                       !- View Factor to Ground
  ,                                       !- Number of Vertices
  0, 0, 2.4384,                           !- X,Y,Z Vertex 1 {m}
  0, 0, 0,                                !- X,Y,Z Vertex 2 {m}
  5.57695129776527, 0, 0,                 !- X,Y,Z Vertex 3 {m}
  5.57695129776527, 0, 2.4384;            !- X,Y,Z Vertex 4 {m}

OS:Surface,
  {a36876e3-c4be-4d9d-b9f0-3b69949b741a}, !- Handle
  Surface 14,                             !- Name
  RoofCeiling,                            !- Surface Type
  ,                                       !- Construction Name
  {540b4c13-65c5-4d79-8430-9006c473f6dc}, !- Space Name
  Surface,                                !- Outside Boundary Condition
  {95512ffb-3c0e-45b9-8291-3edd13349ea6}, !- Outside Boundary Condition Object
  NoSun,                                  !- Sun Exposure
  NoWind,                                 !- Wind Exposure
  ,                                       !- View Factor to Ground
  ,                                       !- Number of Vertices
  5.57695129776527, 0, 2.4384,            !- X,Y,Z Vertex 1 {m}
  5.57695129776527, 3.048, 2.4384,        !- X,Y,Z Vertex 2 {m}
  11.6729512977653, 3.048, 2.4384,        !- X,Y,Z Vertex 3 {m}