!- NOTE: Auto-generated from /test/osw_files/SFD_2000sqft_2story_FB_UA_Denver_RoomAC.osw

OS:Version,
  {082da8dc-4af0-485d-a79f-9ea171ecdb23}, !- Handle
  2.8.0;                                  !- Version Identifier

OS:SimulationControl,
  {75c2560a-f724-4da5-ba5e-c3db122e5841}, !- Handle
  ,                                       !- Do Zone Sizing Calculation
  ,                                       !- Do System Sizing Calculation
  ,                                       !- Do Plant Sizing Calculation
  No;                                     !- Run Simulation for Sizing Periods

OS:Timestep,
  {7f4f92ae-b703-4b30-851f-ab4c5eadf9b9}, !- Handle
  6;                                      !- Number of Timesteps per Hour

OS:ShadowCalculation,
  {da71ccd9-28ed-4eba-89ce-7522d3b08fe8}, !- Handle
  20,                                     !- Calculation Frequency
  200;                                    !- Maximum Figures in Shadow Overlap Calculations

OS:SurfaceConvectionAlgorithm:Outside,
  {bffeb3ea-57be-4191-bc34-df0cf5265d90}, !- Handle
  DOE-2;                                  !- Algorithm

OS:SurfaceConvectionAlgorithm:Inside,
  {a5565c18-2c20-4118-bf2a-cdd4f84fdff9}, !- Handle
  TARP;                                   !- Algorithm

OS:ZoneCapacitanceMultiplier:ResearchSpecial,
  {2b4e9dd8-dbc3-447a-a08e-9b82c18975a9}, !- Handle
  ,                                       !- Temperature Capacity Multiplier
  15,                                     !- Humidity Capacity Multiplier
  ;                                       !- Carbon Dioxide Capacity Multiplier

OS:RunPeriod,
  {10bd1f07-36c7-43fb-b337-69da27b9e970}, !- Handle
  Run Period 1,                           !- Name
  1,                                      !- Begin Month
  1,                                      !- Begin Day of Month
  12,                                     !- End Month
  31,                                     !- End Day of Month
  ,                                       !- Use Weather File Holidays and Special Days
  ,                                       !- Use Weather File Daylight Saving Period
  ,                                       !- Apply Weekend Holiday Rule
  ,                                       !- Use Weather File Rain Indicators
  ,                                       !- Use Weather File Snow Indicators
  ;                                       !- Number of Times Runperiod to be Repeated

OS:ThermalZone,
  {dccdd29f-6154-4dc5-9dbc-f59b06899f48}, !- Handle
  living zone,                            !- Name
  ,                                       !- Multiplier
  ,                                       !- Ceiling Height {m}
  ,                                       !- Volume {m3}
  ,                                       !- Floor Area {m2}
  ,                                       !- Zone Inside Convection Algorithm
  ,                                       !- Zone Outside Convection Algorithm
  ,                                       !- Zone Conditioning Equipment List Name
  {2ebf74a0-8e40-4f66-96a8-a889af497863}, !- Zone Air Inlet Port List
  {c6c3c401-caa9-48a5-98b0-979d19b495f8}, !- Zone Air Exhaust Port List
  {3111d123-37ec-43ff-af4a-0c2259b4263c}, !- Zone Air Node Name
  {24d30944-73df-4888-87c9-84285fa22dc1}, !- Zone Return Air Port List
  ,                                       !- Primary Daylighting Control Name
  ,                                       !- Fraction of Zone Controlled by Primary Daylighting Control
  ,                                       !- Secondary Daylighting Control Name
  ,                                       !- Fraction of Zone Controlled by Secondary Daylighting Control
  ,                                       !- Illuminance Map Name
  ,                                       !- Group Rendering Name
  {05c1f352-e9a9-4448-8f42-25a32edd62e5}, !- Thermostat Name
  No;                                     !- Use Ideal Air Loads

OS:Node,
  {a51dc30d-c69e-4b64-aca1-41ed8490629c}, !- Handle
  Node 1,                                 !- Name
  {3111d123-37ec-43ff-af4a-0c2259b4263c}, !- Inlet Port
  ;                                       !- Outlet Port

OS:Connection,
  {3111d123-37ec-43ff-af4a-0c2259b4263c}, !- Handle
  {a8078975-cccc-4af9-851a-73e42271e6b8}, !- Name
  {dccdd29f-6154-4dc5-9dbc-f59b06899f48}, !- Source Object
  11,                                     !- Outlet Port
  {a51dc30d-c69e-4b64-aca1-41ed8490629c}, !- Target Object
  2;                                      !- Inlet Port

OS:PortList,
  {2ebf74a0-8e40-4f66-96a8-a889af497863}, !- Handle
  {2ec2459e-2295-4d10-8c16-1b8992923964}, !- Name
  {dccdd29f-6154-4dc5-9dbc-f59b06899f48}, !- HVAC Component
  {27adc7f2-3f4f-4aa5-a956-82cc1bf12c04}; !- Port 1

OS:PortList,
  {c6c3c401-caa9-48a5-98b0-979d19b495f8}, !- Handle
  {67809ff3-eaa9-42ec-86e7-598ff359d3d4}, !- Name
  {dccdd29f-6154-4dc5-9dbc-f59b06899f48}, !- HVAC Component
  {e4de45c5-8c25-4833-afc7-12b763313886}; !- Port 1

OS:PortList,
  {24d30944-73df-4888-87c9-84285fa22dc1}, !- Handle
  {b2537342-b8f0-40e3-b19c-0bf0e0fecacd}, !- Name
  {dccdd29f-6154-4dc5-9dbc-f59b06899f48}; !- HVAC Component

OS:Sizing:Zone,
  {ed2c2f53-69c2-48cd-be3b-8c8d73a072a1}, !- Handle
  {dccdd29f-6154-4dc5-9dbc-f59b06899f48}, !- Zone or ZoneList Name
  SupplyAirTemperature,                   !- Zone Cooling Design Supply Air Temperature Input Method
  14,                                     !- Zone Cooling Design Supply Air Temperature {C}
  11.11,                                  !- Zone Cooling Design Supply Air Temperature Difference {deltaC}
  SupplyAirTemperature,                   !- Zone Heating Design Supply Air Temperature Input Method
  40,                                     !- Zone Heating Design Supply Air Temperature {C}
  11.11,                                  !- Zone Heating Design Supply Air Temperature Difference {deltaC}
  0.0085,                                 !- Zone Cooling Design Supply Air Humidity Ratio {kg-H2O/kg-air}
  0.008,                                  !- Zone Heating Design Supply Air Humidity Ratio {kg-H2O/kg-air}
  ,                                       !- Zone Heating Sizing Factor
  ,                                       !- Zone Cooling Sizing Factor
  DesignDay,                              !- Cooling Design Air Flow Method
  ,                                       !- Cooling Design Air Flow Rate {m3/s}
  ,                                       !- Cooling Minimum Air Flow per Zone Floor Area {m3/s-m2}
  ,                                       !- Cooling Minimum Air Flow {m3/s}
  ,                                       !- Cooling Minimum Air Flow Fraction
  DesignDay,                              !- Heating Design Air Flow Method
  ,                                       !- Heating Design Air Flow Rate {m3/s}
  ,                                       !- Heating Maximum Air Flow per Zone Floor Area {m3/s-m2}
  ,                                       !- Heating Maximum Air Flow {m3/s}
  ,                                       !- Heating Maximum Air Flow Fraction
  ,                                       !- Design Zone Air Distribution Effectiveness in Cooling Mode
  ,                                       !- Design Zone Air Distribution Effectiveness in Heating Mode
  No,                                     !- Account for Dedicated Outdoor Air System
  NeutralSupplyAir,                       !- Dedicated Outdoor Air System Control Strategy
  autosize,                               !- Dedicated Outdoor Air Low Setpoint Temperature for Design {C}
  autosize;                               !- Dedicated Outdoor Air High Setpoint Temperature for Design {C}

OS:ZoneHVAC:EquipmentList,
  {42e8f8dd-3eeb-4046-98b0-ec4bc7e33d36}, !- Handle
  Zone HVAC Equipment List 1,             !- Name
  {dccdd29f-6154-4dc5-9dbc-f59b06899f48}, !- Thermal Zone
  SequentialLoad,                         !- Load Distribution Scheme
  {b5f7eb18-ee8b-4a53-9e9d-c5d417a8d384}, !- Zone Equipment 1
  1,                                      !- Zone Equipment Cooling Sequence 1
  1,                                      !- Zone Equipment Heating or No-Load Sequence 1
  ,                                       !- Zone Equipment Sequential Cooling Fraction 1
  ;                                       !- Zone Equipment Sequential Heating Fraction 1

OS:ThermalZone,
  {4eefaa2e-61dd-4aa5-a3be-e1f41884d930}, !- Handle
  garage zone,                            !- Name
  ,                                       !- Multiplier
  ,                                       !- Ceiling Height {m}
  ,                                       !- Volume {m3}
  ,                                       !- Floor Area {m2}
  ,                                       !- Zone Inside Convection Algorithm
  ,                                       !- Zone Outside Convection Algorithm
  ,                                       !- Zone Conditioning Equipment List Name
  {9861d7f4-320a-4e61-987c-cfb7cbca3495}, !- Zone Air Inlet Port List
  {cda52110-07a1-4025-87a1-ad1f8a9e9b42}, !- Zone Air Exhaust Port List
  {1db873f8-3936-4784-af59-e76f44408a2f}, !- Zone Air Node Name
  {9eae67ce-e62f-4a38-97b1-0c38e5f90aef}, !- Zone Return Air Port List
  ,                                       !- Primary Daylighting Control Name
  ,                                       !- Fraction of Zone Controlled by Primary Daylighting Control
  ,                                       !- Secondary Daylighting Control Name
  ,                                       !- Fraction of Zone Controlled by Secondary Daylighting Control
  ,                                       !- Illuminance Map Name
  ,                                       !- Group Rendering Name
  ,                                       !- Thermostat Name
  No;                                     !- Use Ideal Air Loads

OS:Node,
  {3e7d468c-bfae-4a8b-869b-7d131a516b32}, !- Handle
  Node 2,                                 !- Name
  {1db873f8-3936-4784-af59-e76f44408a2f}, !- Inlet Port
  ;                                       !- Outlet Port

OS:Connection,
  {1db873f8-3936-4784-af59-e76f44408a2f}, !- Handle
  {204e9ab9-4da9-442c-9943-0f6fface2143}, !- Name
  {4eefaa2e-61dd-4aa5-a3be-e1f41884d930}, !- Source Object
  11,                                     !- Outlet Port
  {3e7d468c-bfae-4a8b-869b-7d131a516b32}, !- Target Object
  2;                                      !- Inlet Port

OS:PortList,
  {9861d7f4-320a-4e61-987c-cfb7cbca3495}, !- Handle
  {d1aa8b61-d134-4bd0-87d0-a7cfb0390ee8}, !- Name
  {4eefaa2e-61dd-4aa5-a3be-e1f41884d930}; !- HVAC Component

OS:PortList,
  {cda52110-07a1-4025-87a1-ad1f8a9e9b42}, !- Handle
  {ada74e9c-148a-4276-852b-24b18c638123}, !- Name
  {4eefaa2e-61dd-4aa5-a3be-e1f41884d930}; !- HVAC Component

OS:PortList,
  {9eae67ce-e62f-4a38-97b1-0c38e5f90aef}, !- Handle
  {ed37ce79-7195-4ca3-ad3d-43ee9e96d9ff}, !- Name
  {4eefaa2e-61dd-4aa5-a3be-e1f41884d930}; !- HVAC Component

OS:Sizing:Zone,
  {15a24539-53c3-440a-9d7d-253212dc3bf3}, !- Handle
  {4eefaa2e-61dd-4aa5-a3be-e1f41884d930}, !- Zone or ZoneList Name
  SupplyAirTemperature,                   !- Zone Cooling Design Supply Air Temperature Input Method
  14,                                     !- Zone Cooling Design Supply Air Temperature {C}
  11.11,                                  !- Zone Cooling Design Supply Air Temperature Difference {deltaC}
  SupplyAirTemperature,                   !- Zone Heating Design Supply Air Temperature Input Method
  40,                                     !- Zone Heating Design Supply Air Temperature {C}
  11.11,                                  !- Zone Heating Design Supply Air Temperature Difference {deltaC}
  0.0085,                                 !- Zone Cooling Design Supply Air Humidity Ratio {kg-H2O/kg-air}
  0.008,                                  !- Zone Heating Design Supply Air Humidity Ratio {kg-H2O/kg-air}
  ,                                       !- Zone Heating Sizing Factor
  ,                                       !- Zone Cooling Sizing Factor
  DesignDay,                              !- Cooling Design Air Flow Method
  ,                                       !- Cooling Design Air Flow Rate {m3/s}
  ,                                       !- Cooling Minimum Air Flow per Zone Floor Area {m3/s-m2}
  ,                                       !- Cooling Minimum Air Flow {m3/s}
  ,                                       !- Cooling Minimum Air Flow Fraction
  DesignDay,                              !- Heating Design Air Flow Method
  ,                                       !- Heating Design Air Flow Rate {m3/s}
  ,                                       !- Heating Maximum Air Flow per Zone Floor Area {m3/s-m2}
  ,                                       !- Heating Maximum Air Flow {m3/s}
  ,                                       !- Heating Maximum Air Flow Fraction
  ,                                       !- Design Zone Air Distribution Effectiveness in Cooling Mode
  ,                                       !- Design Zone Air Distribution Effectiveness in Heating Mode
  No,                                     !- Account for Dedicated Outdoor Air System
  NeutralSupplyAir,                       !- Dedicated Outdoor Air System Control Strategy
  autosize,                               !- Dedicated Outdoor Air Low Setpoint Temperature for Design {C}
  autosize;                               !- Dedicated Outdoor Air High Setpoint Temperature for Design {C}

OS:ZoneHVAC:EquipmentList,
  {55107c8b-fdeb-455b-891f-6a839b750b22}, !- Handle
  Zone HVAC Equipment List 2,             !- Name
  {4eefaa2e-61dd-4aa5-a3be-e1f41884d930}; !- Thermal Zone

OS:Space,
  {bf0604c8-ed92-47f4-ae32-965be36dfabe}, !- Handle
  garage space,                           !- Name
  {92fac386-7daf-4c3f-b087-f38caa80b26c}, !- Space Type Name
  ,                                       !- Default Construction Set Name
  ,                                       !- Default Schedule Set Name
  -0,                                     !- Direction of Relative North {deg}
  0,                                      !- X Origin {m}
  0,                                      !- Y Origin {m}
  0,                                      !- Z Origin {m}
  ,                                       !- Building Story Name
  {4eefaa2e-61dd-4aa5-a3be-e1f41884d930}; !- Thermal Zone Name

OS:Surface,
  {7ccbbe76-cfd8-47e0-af7a-8e8f8c175a27}, !- Handle
  Surface 1,                              !- Name
  Floor,                                  !- Surface Type
  ,                                       !- Construction Name
  {bf0604c8-ed92-47f4-ae32-965be36dfabe}, !- Space Name
  Foundation,                             !- Outside Boundary Condition
  ,                                       !- Outside Boundary Condition Object
  NoSun,                                  !- Sun Exposure
  NoWind,                                 !- Wind Exposure
  ,                                       !- View Factor to Ground
  ,                                       !- Number of Vertices
  5.57695129776527, -3.048, 0,            !- X,Y,Z Vertex 1 {m}
  5.57695129776527, 3.048, 0,             !- X,Y,Z Vertex 2 {m}
  11.6729512977653, 3.048, 0,             !- X,Y,Z Vertex 3 {m}
  11.6729512977653, -3.048, 0;            !- X,Y,Z Vertex 4 {m}

OS:Surface,
  {ce137134-2b48-4e1b-ad13-537e17e80ba6}, !- Handle
  Surface 2,                              !- Name
  Wall,                                   !- Surface Type
  ,                                       !- Construction Name
  {bf0604c8-ed92-47f4-ae32-965be36dfabe}, !- Space Name
  Surface,                                !- Outside Boundary Condition
  {37e684f4-0d47-40b9-8496-89556a9b738e}, !- Outside Boundary Condition Object
  NoSun,                                  !- Sun Exposure
  NoWind,                                 !- Wind Exposure
  ,                                       !- View Factor to Ground
  ,                                       !- Number of Vertices
  5.57695129776527, 3.048, 2.4384,        !- X,Y,Z Vertex 1 {m}
  5.57695129776527, 3.048, 0,             !- X,Y,Z Vertex 2 {m}
  5.57695129776527, 0, 0,                 !- X,Y,Z Vertex 3 {m}
  5.57695129776527, 0, 2.4384;            !- X,Y,Z Vertex 4 {m}

OS:Surface,
  {db266b74-e216-44af-a669-06013d90d4f5}, !- Handle
  Surface 3,                              !- Name
  Wall,                                   !- Surface Type
  ,                                       !- Construction Name
  {bf0604c8-ed92-47f4-ae32-965be36dfabe}, !- Space Name
  Surface,                                !- Outside Boundary Condition
  {6743dd23-532d-4473-8e68-eac9790823e5}, !- Outside Boundary Condition Object
  NoSun,                                  !- Sun Exposure
  NoWind,                                 !- Wind Exposure
  ,                                       !- View Factor to Ground
  ,                                       !- Number of Vertices
  11.6729512977653, 3.048, 2.4384,        !- X,Y,Z Vertex 1 {m}
  11.6729512977653, 3.048, 0,             !- X,Y,Z Vertex 2 {m}
  5.57695129776527, 3.048, 0,             !- X,Y,Z Vertex 3 {m}
  5.57695129776527, 3.048, 2.4384;        !- X,Y,Z Vertex 4 {m}

OS:Surface,
  {babe0bc7-8e60-451d-bca2-04dd3fa49911}, !- Handle
  Surface 4,                              !- Name
  Wall,                                   !- Surface Type
  ,                                       !- Construction Name
  {bf0604c8-ed92-47f4-ae32-965be36dfabe}, !- Space Name
  Outdoors,                               !- Outside Boundary Condition
  ,                                       !- Outside Boundary Condition Object
  SunExposed,                             !- Sun Exposure
  WindExposed,                            !- Wind Exposure
  ,                                       !- View Factor to Ground
  ,                                       !- Number of Vertices
  11.6729512977653, -3.048, 2.4384,       !- X,Y,Z Vertex 1 {m}
  11.6729512977653, -3.048, 0,            !- X,Y,Z Vertex 2 {m}
  11.6729512977653, 3.048, 0,             !- X,Y,Z Vertex 3 {m}
  11.6729512977653, 3.048, 2.4384;        !- X,Y,Z Vertex 4 {m}

OS:Surface,
  {85827fe7-e204-43ab-9e2c-75a5065360b9}, !- Handle
  Surface 5,                              !- Name
  Wall,                                   !- Surface Type
  ,                                       !- Construction Name
  {bf0604c8-ed92-47f4-ae32-965be36dfabe}, !- Space Name
  Outdoors,                               !- Outside Boundary Condition
  ,                                       !- Outside Boundary Condition Object
  SunExposed,                             !- Sun Exposure
  WindExposed,                            !- Wind Exposure
  ,                                       !- View Factor to Ground
  ,                                       !- Number of Vertices
  5.57695129776527, -3.048, 2.4384,       !- X,Y,Z Vertex 1 {m}
  5.57695129776527, -3.048, 0,            !- X,Y,Z Vertex 2 {m}
  11.6729512977653, -3.048, 0,            !- X,Y,Z Vertex 3 {m}
  11.6729512977653, -3.048, 2.4384;       !- X,Y,Z Vertex 4 {m}

OS:Surface,
  {a337be2e-04f7-4a8d-ac34-c88e75e84101}, !- Handle
  Surface 6,                              !- Name
  RoofCeiling,                            !- Surface Type
  ,                                       !- Construction Name
  {bf0604c8-ed92-47f4-ae32-965be36dfabe}, !- Space Name
  Surface,                                !- Outside Boundary Condition
  {e8861e43-e439-456c-b210-1fe9b67a804f}, !- Outside Boundary Condition Object
  NoSun,                                  !- Sun Exposure
  NoWind,                                 !- Wind Exposure
  ,                                       !- View Factor to Ground
  ,                                       !- Number of Vertices
  11.6729512977653, -3.048, 2.4384,       !- X,Y,Z Vertex 1 {m}
  11.6729512977653, 3.048, 2.4384,        !- X,Y,Z Vertex 2 {m}
  5.57695129776527, 3.048, 2.4384,        !- X,Y,Z Vertex 3 {m}
  5.57695129776527, -3.048, 2.4384;       !- X,Y,Z Vertex 4 {m}

OS:SpaceType,
  {92fac386-7daf-4c3f-b087-f38caa80b26c}, !- Handle
  Space Type 1,                           !- Name
  ,                                       !- Default Construction Set Name
  ,                                       !- Default Schedule Set Name
  ,                                       !- Group Rendering Name
  ,                                       !- Design Specification Outdoor Air Object Name
  ,                                       !- Standards Template
  ,                                       !- Standards Building Type
  garage;                                 !- Standards Space Type

OS:Space,
  {347e73bd-bab5-4a4d-91ca-be3ea1220448}, !- Handle
  living space,                           !- Name
  {c3c3200d-199c-4253-8411-ad196a774456}, !- Space Type Name
  ,                                       !- Default Construction Set Name
  ,                                       !- Default Schedule Set Name
  -0,                                     !- Direction of Relative North {deg}
  0,                                      !- X Origin {m}
  0,                                      !- Y Origin {m}
  0,                                      !- Z Origin {m}
  ,                                       !- Building Story Name
  {dccdd29f-6154-4dc5-9dbc-f59b06899f48}, !- Thermal Zone Name
  ,                                       !- Part of Total Floor Area
  ,                                       !- Design Specification Outdoor Air Object Name
  {d68949ef-51e8-4820-8009-b6695d9a9235}; !- Building Unit Name

OS:Surface,
  {61e8ff96-07b7-4cc5-809a-12e7da5dfd65}, !- Handle
  Surface 7,                              !- Name
  Floor,                                  !- Surface Type
  ,                                       !- Construction Name
  {347e73bd-bab5-4a4d-91ca-be3ea1220448}, !- Space Name
  Surface,                                !- Outside Boundary Condition
  {7a81b3b0-1c7a-41f4-98af-5d4fa819cf2e}, !- Outside Boundary Condition Object
  NoSun,                                  !- Sun Exposure
  NoWind,                                 !- Wind Exposure
  ,                                       !- View Factor to Ground
  ,                                       !- Number of Vertices
  0, 0, 0,                                !- X,Y,Z Vertex 1 {m}
  0, 5.83647564888264, 0,                 !- X,Y,Z Vertex 2 {m}
  11.6729512977653, 5.83647564888264, 0,  !- X,Y,Z Vertex 3 {m}
  11.6729512977653, 3.048, 0,             !- X,Y,Z Vertex 4 {m}
  5.57695129776527, 3.048, 0,             !- X,Y,Z Vertex 5 {m}
  5.57695129776527, 0, 0;                 !- X,Y,Z Vertex 6 {m}

OS:Surface,
  {fb1e744b-8fb8-4e70-9ade-f47e1b5b0dee}, !- Handle
  Surface 8,                              !- Name
  Wall,                                   !- Surface Type
  ,                                       !- Construction Name
  {347e73bd-bab5-4a4d-91ca-be3ea1220448}, !- Space Name
  Outdoors,                               !- Outside Boundary Condition
  ,                                       !- Outside Boundary Condition Object
  SunExposed,                             !- Sun Exposure
  WindExposed,                            !- Wind Exposure
  ,                                       !- View Factor to Ground
  ,                                       !- Number of Vertices
  0, 5.83647564888264, 2.4384,            !- X,Y,Z Vertex 1 {m}
  0, 5.83647564888264, 0,                 !- X,Y,Z Vertex 2 {m}
  0, 0, 0,                                !- X,Y,Z Vertex 3 {m}
  0, 0, 2.4384;                           !- X,Y,Z Vertex 4 {m}

OS:Surface,
  {500f634c-fe5a-4d46-adac-2c3e062c66ef}, !- Handle
  Surface 9,                              !- Name
  Wall,                                   !- Surface Type
  ,                                       !- Construction Name
  {347e73bd-bab5-4a4d-91ca-be3ea1220448}, !- Space Name
  Outdoors,                               !- Outside Boundary Condition
  ,                                       !- Outside Boundary Condition Object
  SunExposed,                             !- Sun Exposure
  WindExposed,                            !- Wind Exposure
  ,                                       !- View Factor to Ground
  ,                                       !- Number of Vertices
  11.6729512977653, 5.83647564888264, 2.4384, !- X,Y,Z Vertex 1 {m}
  11.6729512977653, 5.83647564888264, 0,  !- X,Y,Z Vertex 2 {m}
  0, 5.83647564888264, 0,                 !- X,Y,Z Vertex 3 {m}
  0, 5.83647564888264, 2.4384;            !- X,Y,Z Vertex 4 {m}

OS:Surface,
  {d56f99a7-994e-43e6-ace2-2d4ea1cb3de0}, !- Handle
  Surface 10,                             !- Name
  Wall,                                   !- Surface Type
  ,                                       !- Construction Name
  {347e73bd-bab5-4a4d-91ca-be3ea1220448}, !- Space Name
  Outdoors,                               !- Outside Boundary Condition
  ,                                       !- Outside Boundary Condition Object
  SunExposed,                             !- Sun Exposure
  WindExposed,                            !- Wind Exposure
  ,                                       !- View Factor to Ground
  ,                                       !- Number of Vertices
  11.6729512977653, 3.048, 2.4384,        !- X,Y,Z Vertex 1 {m}
  11.6729512977653, 3.048, 0,             !- X,Y,Z Vertex 2 {m}
  11.6729512977653, 5.83647564888264, 0,  !- X,Y,Z Vertex 3 {m}
  11.6729512977653, 5.83647564888264, 2.4384; !- X,Y,Z Vertex 4 {m}

OS:Surface,
  {6743dd23-532d-4473-8e68-eac9790823e5}, !- Handle
  Surface 11,                             !- Name
  Wall,                                   !- Surface Type
  ,                                       !- Construction Name
  {347e73bd-bab5-4a4d-91ca-be3ea1220448}, !- Space Name
  Surface,                                !- Outside Boundary Condition
  {db266b74-e216-44af-a669-06013d90d4f5}, !- Outside Boundary Condition Object
  NoSun,                                  !- Sun Exposure
  NoWind,                                 !- Wind Exposure
  ,                                       !- View Factor to Ground
  ,                                       !- Number of Vertices
  5.57695129776527, 3.048, 2.4384,        !- X,Y,Z Vertex 1 {m}
  5.57695129776527, 3.048, 0,             !- X,Y,Z Vertex 2 {m}
  11.6729512977653, 3.048, 0,             !- X,Y,Z Vertex 3 {m}
  11.6729512977653, 3.048, 2.4384;        !- X,Y,Z Vertex 4 {m}

OS:Surface,
  {37e684f4-0d47-40b9-8496-89556a9b738e}, !- Handle
  Surface 12,                             !- Name
  Wall,                                   !- Surface Type
  ,                                       !- Construction Name
  {347e73bd-bab5-4a4d-91ca-be3ea1220448}, !- Space Name
  Surface,                                !- Outside Boundary Condition
  {ce137134-2b48-4e1b-ad13-537e17e80ba6}, !- Outside Boundary Condition Object
  NoSun,                                  !- Sun Exposure
  NoWind,                                 !- Wind Exposure
  ,                                       !- View Factor to Ground
  ,                                       !- Number of Vertices
  5.57695129776527, 0, 2.4384,            !- X,Y,Z Vertex 1 {m}
  5.57695129776527, 0, 0,                 !- X,Y,Z Vertex 2 {m}
  5.57695129776527, 3.048, 0,             !- X,Y,Z Vertex 3 {m}
  5.57695129776527, 3.048, 2.4384;        !- X,Y,Z Vertex 4 {m}

OS:Surface,
  {b2cec96d-5d7f-4641-837c-c4dd96288895}, !- Handle
  Surface 13,                             !- Name
  Wall,                                   !- Surface Type
  ,                                       !- Construction Name
  {347e73bd-bab5-4a4d-91ca-be3ea1220448}, !- Space Name
  Outdoors,                               !- Outside Boundary Condition
  ,                                       !- Outside Boundary Condition Object
  SunExposed,                             !- Sun Exposure
  WindExposed,                            !- Wind Exposure
  ,                                       !- View Factor to Ground
  ,                                       !- Number of Vertices
  0, 0, 2.4384,                           !- X,Y,Z Vertex 1 {m}
  0, 0, 0,                                !- X,Y,Z Vertex 2 {m}
  5.57695129776527, 0, 0,                 !- X,Y,Z Vertex 3 {m}
  5.57695129776527, 0, 2.4384;            !- X,Y,Z Vertex 4 {m}

OS:Surface,
  {fa0fee22-1bfb-4bbf-b059-130f963f338c}, !- Handle
  Surface 14,                             !- Name
  RoofCeiling,                            !- Surface Type
  ,                                       !- Construction Name
  {347e73bd-bab5-4a4d-91ca-be3ea1220448}, !- Space Name
  Surface,                                !- Outside Boundary Condition
  {87be31c6-9d85-4d3a-9b19-63d87a02e4dd}, !- Outside Boundary Condition Object
  NoSun,                                  !- Sun Exposure
  NoWind,                                 !- Wind Exposure
  ,                                       !- View Factor to Ground
  ,                                       !- Number of Vertices
  5.57695129776527, 0, 2.4384,            !- X,Y,Z Vertex 1 {m}
  5.57695129776527, 3.048, 2.4384,        !- X,Y,Z Vertex 2 {m}
  11.6729512977653, 3.048, 2.4384,        !- X,Y,Z Vertex 3 {m}
  11.6729512977653, 5.83647564888264, 2.4384, !- X,Y,Z Vertex 4 {m}
  0, 5.83647564888264, 2.4384,            !- X,Y,Z Vertex 5 {m}
  0, 0, 2.4384;                           !- X,Y,Z Vertex 6 {m}

OS:SpaceType,
  {c3c3200d-199c-4253-8411-ad196a774456}, !- Handle
  Space Type 2,                           !- Name
  ,                                       !- Default Construction Set Name
  ,                                       !- Default Schedule Set Name
  ,                                       !- Group Rendering Name
  ,                                       !- Design Specification Outdoor Air Object Name
  ,                                       !- Standards Template
  ,                                       !- Standards Building Type