!- NOTE: Auto-generated from /test/osw_files/SFD_2000sqft_2story_FB_GRG_UA_3Beds_2Baths_Denver_HPWH_SHW.osw

OS:Version,
  {78620839-db1d-4607-ae0c-86382240ff71}, !- Handle
  2.9.0;                                  !- Version Identifier

OS:SimulationControl,
  {05ca91c4-fd15-4014-8586-9abc20299af4}, !- Handle
  ,                                       !- Do Zone Sizing Calculation
  ,                                       !- Do System Sizing Calculation
  ,                                       !- Do Plant Sizing Calculation
  No;                                     !- Run Simulation for Sizing Periods

OS:Timestep,
  {85b3a951-3b66-41e6-ac73-bbf23d14acdc}, !- Handle
  6;                                      !- Number of Timesteps per Hour

OS:ShadowCalculation,
  {ff750dec-fff3-4536-b4df-ab9d538b92f7}, !- Handle
  20,                                     !- Calculation Frequency
  200;                                    !- Maximum Figures in Shadow Overlap Calculations

OS:SurfaceConvectionAlgorithm:Outside,
  {31f6b42d-f368-4c3b-a952-7d288b8f0a4e}, !- Handle
  DOE-2;                                  !- Algorithm

OS:SurfaceConvectionAlgorithm:Inside,
  {4ec8e81f-2e41-4473-9701-5e7fc580bcae}, !- Handle
  TARP;                                   !- Algorithm

OS:ZoneCapacitanceMultiplier:ResearchSpecial,
  {bd84991b-5cd6-4cf4-afd9-5f26ec062925}, !- Handle
  ,                                       !- Temperature Capacity Multiplier
  15,                                     !- Humidity Capacity Multiplier
  ;                                       !- Carbon Dioxide Capacity Multiplier

OS:RunPeriod,
  {59478a86-0858-42aa-a4b3-694f1fc3ac30}, !- Handle
  Run Period 1,                           !- Name
  1,                                      !- Begin Month
  1,                                      !- Begin Day of Month
  12,                                     !- End Month
  31,                                     !- End Day of Month
  ,                                       !- Use Weather File Holidays and Special Days
  ,                                       !- Use Weather File Daylight Saving Period
  ,                                       !- Apply Weekend Holiday Rule
  ,                                       !- Use Weather File Rain Indicators
  ,                                       !- Use Weather File Snow Indicators
  ;                                       !- Number of Times Runperiod to be Repeated

OS:YearDescription,
  {b60bcd30-6dc3-4793-8a30-9a5ecbf3f6dc}, !- Handle
  2007,                                   !- Calendar Year
  ,                                       !- Day of Week for Start Day
  ;                                       !- Is Leap Year

OS:ThermalZone,
  {1eeb7c71-c28e-4160-a8c6-fbb782f45029}, !- Handle
  living zone,                            !- Name
  ,                                       !- Multiplier
  ,                                       !- Ceiling Height {m}
  ,                                       !- Volume {m3}
  ,                                       !- Floor Area {m2}
  ,                                       !- Zone Inside Convection Algorithm
  ,                                       !- Zone Outside Convection Algorithm
  ,                                       !- Zone Conditioning Equipment List Name
  {04e55cff-b443-465f-90a5-ad74c72b237e}, !- Zone Air Inlet Port List
  {da0c2352-b59c-44a9-9e3a-1ea171646d8d}, !- Zone Air Exhaust Port List
  {e4d11e9a-7746-4d99-9e50-f1bc1a2a7844}, !- Zone Air Node Name
  {d2d132ea-bb56-4db5-b97a-009d987e0904}, !- Zone Return Air Port List
  ,                                       !- Primary Daylighting Control Name
  ,                                       !- Fraction of Zone Controlled by Primary Daylighting Control
  ,                                       !- Secondary Daylighting Control Name
  ,                                       !- Fraction of Zone Controlled by Secondary Daylighting Control
  ,                                       !- Illuminance Map Name
  ,                                       !- Group Rendering Name
  ,                                       !- Thermostat Name
  No;                                     !- Use Ideal Air Loads

OS:Node,
  {e4fde3ff-5589-4672-ab1c-e15696f54474}, !- Handle
  Node 1,                                 !- Name
  {e4d11e9a-7746-4d99-9e50-f1bc1a2a7844}, !- Inlet Port
  ;                                       !- Outlet Port

OS:Connection,
  {e4d11e9a-7746-4d99-9e50-f1bc1a2a7844}, !- Handle
  {1921a7dc-3421-4a02-9772-d3b6c4608081}, !- Name
  {1eeb7c71-c28e-4160-a8c6-fbb782f45029}, !- Source Object
  11,                                     !- Outlet Port
  {e4fde3ff-5589-4672-ab1c-e15696f54474}, !- Target Object
  2;                                      !- Inlet Port

OS:PortList,
  {04e55cff-b443-465f-90a5-ad74c72b237e}, !- Handle
  {cf5657aa-552e-4abb-94bc-54e703c51c9f}, !- Name
  {1eeb7c71-c28e-4160-a8c6-fbb782f45029}; !- HVAC Component

OS:PortList,
  {da0c2352-b59c-44a9-9e3a-1ea171646d8d}, !- Handle
  {fe07c714-7421-4ba0-a3da-cd5efe4fb378}, !- Name
  {1eeb7c71-c28e-4160-a8c6-fbb782f45029}; !- HVAC Component

OS:PortList,
  {d2d132ea-bb56-4db5-b97a-009d987e0904}, !- Handle
  {c1f0c517-a8aa-4337-8094-74581e33ca8e}, !- Name
  {1eeb7c71-c28e-4160-a8c6-fbb782f45029}; !- HVAC Component

OS:Sizing:Zone,
  {82cf207a-e24d-493b-a7ec-04186bddebe1}, !- Handle
  {1eeb7c71-c28e-4160-a8c6-fbb782f45029}, !- Zone or ZoneList Name
  SupplyAirTemperature,                   !- Zone Cooling Design Supply Air Temperature Input Method
  14,                                     !- Zone Cooling Design Supply Air Temperature {C}
  11.11,                                  !- Zone Cooling Design Supply Air Temperature Difference {deltaC}
  SupplyAirTemperature,                   !- Zone Heating Design Supply Air Temperature Input Method
  40,                                     !- Zone Heating Design Supply Air Temperature {C}
  11.11,                                  !- Zone Heating Design Supply Air Temperature Difference {deltaC}
  0.0085,                                 !- Zone Cooling Design Supply Air Humidity Ratio {kg-H2O/kg-air}
  0.008,                                  !- Zone Heating Design Supply Air Humidity Ratio {kg-H2O/kg-air}
  ,                                       !- Zone Heating Sizing Factor
  ,                                       !- Zone Cooling Sizing Factor
  DesignDay,                              !- Cooling Design Air Flow Method
  ,                                       !- Cooling Design Air Flow Rate {m3/s}
  ,                                       !- Cooling Minimum Air Flow per Zone Floor Area {m3/s-m2}
  ,                                       !- Cooling Minimum Air Flow {m3/s}
  ,                                       !- Cooling Minimum Air Flow Fraction
  DesignDay,                              !- Heating Design Air Flow Method
  ,                                       !- Heating Design Air Flow Rate {m3/s}
  ,                                       !- Heating Maximum Air Flow per Zone Floor Area {m3/s-m2}
  ,                                       !- Heating Maximum Air Flow {m3/s}
  ,                                       !- Heating Maximum Air Flow Fraction
  ,                                       !- Design Zone Air Distribution Effectiveness in Cooling Mode
  ,                                       !- Design Zone Air Distribution Effectiveness in Heating Mode
  No,                                     !- Account for Dedicated Outdoor Air System
  NeutralSupplyAir,                       !- Dedicated Outdoor Air System Control Strategy
  autosize,                               !- Dedicated Outdoor Air Low Setpoint Temperature for Design {C}
  autosize;                               !- Dedicated Outdoor Air High Setpoint Temperature for Design {C}

OS:ZoneHVAC:EquipmentList,
  {408bc222-54db-4260-a0c2-66f9edc6f1a3}, !- Handle
  Zone HVAC Equipment List 1,             !- Name
  {1eeb7c71-c28e-4160-a8c6-fbb782f45029}; !- Thermal Zone

OS:ThermalZone,
  {279a4305-c308-45bb-ae3e-e2d0c0a37f3b}, !- Handle
  garage zone,                            !- Name
  ,                                       !- Multiplier
  ,                                       !- Ceiling Height {m}
  ,                                       !- Volume {m3}
  ,                                       !- Floor Area {m2}
  ,                                       !- Zone Inside Convection Algorithm
  ,                                       !- Zone Outside Convection Algorithm
  ,                                       !- Zone Conditioning Equipment List Name
  {751437f0-c5d4-439c-9b58-d3c7c98a4e89}, !- Zone Air Inlet Port List
  {19d3fa2a-b9ab-41cf-a664-f4f8566aae51}, !- Zone Air Exhaust Port List
  {c7701f0b-ce9c-4582-b7d3-ba8b7df66c50}, !- Zone Air Node Name
  {a3ac94b8-edf4-46ad-90b2-c8f36705b5cb}, !- Zone Return Air Port List
  ,                                       !- Primary Daylighting Control Name
  ,                                       !- Fraction of Zone Controlled by Primary Daylighting Control
  ,                                       !- Secondary Daylighting Control Name
  ,                                       !- Fraction of Zone Controlled by Secondary Daylighting Control
  ,                                       !- Illuminance Map Name
  ,                                       !- Group Rendering Name
  ,                                       !- Thermostat Name
  No;                                     !- Use Ideal Air Loads

OS:Node,
  {39831c2d-3b32-4313-9eaf-2ce76e6c88e8}, !- Handle
  Node 2,                                 !- Name
  {c7701f0b-ce9c-4582-b7d3-ba8b7df66c50}, !- Inlet Port
  ;                                       !- Outlet Port

OS:Connection,
  {c7701f0b-ce9c-4582-b7d3-ba8b7df66c50}, !- Handle
  {15bec306-c265-4b56-866d-5e06f6da3125}, !- Name
  {279a4305-c308-45bb-ae3e-e2d0c0a37f3b}, !- Source Object
  11,                                     !- Outlet Port
  {39831c2d-3b32-4313-9eaf-2ce76e6c88e8}, !- Target Object
  2;                                      !- Inlet Port

OS:PortList,
  {751437f0-c5d4-439c-9b58-d3c7c98a4e89}, !- Handle
  {47badef8-1b05-439d-86d9-a2e5064c0654}, !- Name
  {279a4305-c308-45bb-ae3e-e2d0c0a37f3b}; !- HVAC Component

OS:PortList,
  {19d3fa2a-b9ab-41cf-a664-f4f8566aae51}, !- Handle
  {38add06c-caa0-4ee6-b8a3-47ae464a4234}, !- Name
  {279a4305-c308-45bb-ae3e-e2d0c0a37f3b}; !- HVAC Component

OS:PortList,
  {a3ac94b8-edf4-46ad-90b2-c8f36705b5cb}, !- Handle
  {c9e1e58f-b873-407e-bdf4-f0361313ad85}, !- Name
  {279a4305-c308-45bb-ae3e-e2d0c0a37f3b}; !- HVAC Component

OS:Sizing:Zone,
  {adaf5233-466c-41b6-b133-7125baf2398a}, !- Handle
  {279a4305-c308-45bb-ae3e-e2d0c0a37f3b}, !- Zone or ZoneList Name
  SupplyAirTemperature,                   !- Zone Cooling Design Supply Air Temperature Input Method
  14,                                     !- Zone Cooling Design Supply Air Temperature {C}
  11.11,                                  !- Zone Cooling Design Supply Air Temperature Difference {deltaC}
  SupplyAirTemperature,                   !- Zone Heating Design Supply Air Temperature Input Method
  40,                                     !- Zone Heating Design Supply Air Temperature {C}
  11.11,                                  !- Zone Heating Design Supply Air Temperature Difference {deltaC}
  0.0085,                                 !- Zone Cooling Design Supply Air Humidity Ratio {kg-H2O/kg-air}
  0.008,                                  !- Zone Heating Design Supply Air Humidity Ratio {kg-H2O/kg-air}
  ,                                       !- Zone Heating Sizing Factor
  ,                                       !- Zone Cooling Sizing Factor
  DesignDay,                              !- Cooling Design Air Flow Method
  ,                                       !- Cooling Design Air Flow Rate {m3/s}
  ,                                       !- Cooling Minimum Air Flow per Zone Floor Area {m3/s-m2}
  ,                                       !- Cooling Minimum Air Flow {m3/s}
  ,                                       !- Cooling Minimum Air Flow Fraction
  DesignDay,                              !- Heating Design Air Flow Method
  ,                                       !- Heating Design Air Flow Rate {m3/s}
  ,                                       !- Heating Maximum Air Flow per Zone Floor Area {m3/s-m2}
  ,                                       !- Heating Maximum Air Flow {m3/s}
  ,                                       !- Heating Maximum Air Flow Fraction
  ,                                       !- Design Zone Air Distribution Effectiveness in Cooling Mode
  ,                                       !- Design Zone Air Distribution Effectiveness in Heating Mode
  No,                                     !- Account for Dedicated Outdoor Air System
  NeutralSupplyAir,                       !- Dedicated Outdoor Air System Control Strategy
  autosize,                               !- Dedicated Outdoor Air Low Setpoint Temperature for Design {C}
  autosize;                               !- Dedicated Outdoor Air High Setpoint Temperature for Design {C}

OS:ZoneHVAC:EquipmentList,
  {d8eea7d1-6eb5-43d1-ba13-51fbf8c678b3}, !- Handle
  Zone HVAC Equipment List 2,             !- Name
  {279a4305-c308-45bb-ae3e-e2d0c0a37f3b}; !- Thermal Zone

OS:Space,
  {52cb4ea7-c8b5-4afd-b430-3547fb7aa313}, !- Handle
  garage space,                           !- Name
  {fe658747-447c-4598-aba1-bbef9b8bd89f}, !- Space Type Name
  ,                                       !- Default Construction Set Name
  ,                                       !- Default Schedule Set Name
  -0,                                     !- Direction of Relative North {deg}
  0,                                      !- X Origin {m}
  0,                                      !- Y Origin {m}
  0,                                      !- Z Origin {m}
  ,                                       !- Building Story Name
  {279a4305-c308-45bb-ae3e-e2d0c0a37f3b}; !- Thermal Zone Name

OS:Surface,
  {d2e77203-85fb-415f-a984-2df90c2f85d5}, !- Handle
  Surface 1,                              !- Name
  Floor,                                  !- Surface Type
  ,                                       !- Construction Name
  {52cb4ea7-c8b5-4afd-b430-3547fb7aa313}, !- Space Name
  Foundation,                             !- Outside Boundary Condition
  ,                                       !- Outside Boundary Condition Object
  NoSun,                                  !- Sun Exposure
  NoWind,                                 !- Wind Exposure
  ,                                       !- View Factor to Ground
  ,                                       !- Number of Vertices
  5.57695129776527, -3.048, 0,            !- X,Y,Z Vertex 1 {m}
  5.57695129776527, 3.048, 0,             !- X,Y,Z Vertex 2 {m}
  11.6729512977653, 3.048, 0,             !- X,Y,Z Vertex 3 {m}
  11.6729512977653, -3.048, 0;            !- X,Y,Z Vertex 4 {m}

OS:Surface,
  {290f18f1-d638-494d-827b-10f196e54d53}, !- Handle
  Surface 2,                              !- Name
  Wall,                                   !- Surface Type
  ,                                       !- Construction Name
  {52cb4ea7-c8b5-4afd-b430-3547fb7aa313}, !- Space Name
  Surface,                                !- Outside Boundary Condition
  {832216c9-6002-4d9b-9981-fad415244b1b}, !- Outside Boundary Condition Object
  NoSun,                                  !- Sun Exposure
  NoWind,                                 !- Wind Exposure
  ,                                       !- View Factor to Ground
  ,                                       !- Number of Vertices
  5.57695129776527, 3.048, 2.4384,        !- X,Y,Z Vertex 1 {m}
  5.57695129776527, 3.048, 0,             !- X,Y,Z Vertex 2 {m}
  5.57695129776527, 0, 0,                 !- X,Y,Z Vertex 3 {m}
  5.57695129776527, 0, 2.4384;            !- X,Y,Z Vertex 4 {m}

OS:Surface,
  {bd651123-ecb0-4d4e-bf13-70f1eec02817}, !- Handle
  Surface 3,                              !- Name
  Wall,                                   !- Surface Type
  ,                                       !- Construction Name
  {52cb4ea7-c8b5-4afd-b430-3547fb7aa313}, !- Space Name
  Surface,                                !- Outside Boundary Condition
  {a2e01eff-399c-4760-a4c7-665e4b06320d}, !- Outside Boundary Condition Object
  NoSun,                                  !- Sun Exposure
  NoWind,                                 !- Wind Exposure
  ,                                       !- View Factor to Ground
  ,                                       !- Number of Vertices
  11.6729512977653, 3.048, 2.4384,        !- X,Y,Z Vertex 1 {m}
  11.6729512977653, 3.048, 0,             !- X,Y,Z Vertex 2 {m}
  5.57695129776527, 3.048, 0,             !- X,Y,Z Vertex 3 {m}
  5.57695129776527, 3.048, 2.4384;        !- X,Y,Z Vertex 4 {m}

OS:Surface,
  {4a527a17-815c-4223-8ec0-238393cc58d7}, !- Handle
  Surface 4,                              !- Name
  Wall,                                   !- Surface Type
  ,                                       !- Construction Name
  {52cb4ea7-c8b5-4afd-b430-3547fb7aa313}, !- Space Name
  Outdoors,                               !- Outside Boundary Condition
  ,                                       !- Outside Boundary Condition Object
  SunExposed,                             !- Sun Exposure
  WindExposed,                            !- Wind Exposure
  ,                                       !- View Factor to Ground
  ,                                       !- Number of Vertices
  11.6729512977653, -3.048, 2.4384,       !- X,Y,Z Vertex 1 {m}
  11.6729512977653, -3.048, 0,            !- X,Y,Z Vertex 2 {m}
  11.6729512977653, 3.048, 0,             !- X,Y,Z Vertex 3 {m}
  11.6729512977653, 3.048, 2.4384;        !- X,Y,Z Vertex 4 {m}

OS:Surface,
  {29c71576-9c0c-46a1-a85d-5b75dd182452}, !- Handle
  Surface 5,                              !- Name
  Wall,                                   !- Surface Type
  ,                                       !- Construction Name
  {52cb4ea7-c8b5-4afd-b430-3547fb7aa313}, !- Space Name
  Outdoors,                               !- Outside Boundary Condition
  ,                                       !- Outside Boundary Condition Object
  SunExposed,                             !- Sun Exposure
  WindExposed,                            !- Wind Exposure
  ,                                       !- View Factor to Ground
  ,                                       !- Number of Vertices
  5.57695129776527, -3.048, 2.4384,       !- X,Y,Z Vertex 1 {m}
  5.57695129776527, -3.048, 0,            !- X,Y,Z Vertex 2 {m}
  11.6729512977653, -3.048, 0,            !- X,Y,Z Vertex 3 {m}
  11.6729512977653, -3.048, 2.4384;       !- X,Y,Z Vertex 4 {m}

OS:Surface,
  {e7e1563e-b278-4d49-b126-dbc50b15b692}, !- Handle
  Surface 6,                              !- Name
  RoofCeiling,                            !- Surface Type
  ,                                       !- Construction Name
  {52cb4ea7-c8b5-4afd-b430-3547fb7aa313}, !- Space Name
  Surface,                                !- Outside Boundary Condition
  {9880fe0f-eeff-49ed-aca2-d9a190e99fce}, !- Outside Boundary Condition Object
  NoSun,                                  !- Sun Exposure
  NoWind,                                 !- Wind Exposure
  ,                                       !- View Factor to Ground
  ,                                       !- Number of Vertices
  11.6729512977653, -3.048, 2.4384,       !- X,Y,Z Vertex 1 {m}
  11.6729512977653, 3.048, 2.4384,        !- X,Y,Z Vertex 2 {m}
  5.57695129776527, 3.048, 2.4384,        !- X,Y,Z Vertex 3 {m}
  5.57695129776527, -3.048, 2.4384;       !- X,Y,Z Vertex 4 {m}

OS:SpaceType,
  {fe658747-447c-4598-aba1-bbef9b8bd89f}, !- Handle
  Space Type 1,                           !- Name
  ,                                       !- Default Construction Set Name
  ,                                       !- Default Schedule Set Name
  ,                                       !- Group Rendering Name
  ,                                       !- Design Specification Outdoor Air Object Name
  ,                                       !- Standards Template
  ,                                       !- Standards Building Type
  garage;                                 !- Standards Space Type

OS:Space,
  {75b753f7-da61-41ef-ba2e-6d34767b963f}, !- Handle
  living space,                           !- Name
  {78f90291-6454-48c2-89bb-0152621130a7}, !- Space Type Name
  ,                                       !- Default Construction Set Name
  ,                                       !- Default Schedule Set Name
  -0,                                     !- Direction of Relative North {deg}
  0,                                      !- X Origin {m}
  0,                                      !- Y Origin {m}
  0,                                      !- Z Origin {m}
  ,                                       !- Building Story Name
  {1eeb7c71-c28e-4160-a8c6-fbb782f45029}, !- Thermal Zone Name
  ,                                       !- Part of Total Floor Area
  ,                                       !- Design Specification Outdoor Air Object Name
  {a1fc06b2-2406-4f90-b26c-dfc87da89ad2}; !- Building Unit Name

OS:Surface,
  {ade08194-e59f-4ee5-8b59-73346af4dd0b}, !- Handle
  Surface 7,                              !- Name
  Floor,                                  !- Surface Type
  ,                                       !- Construction Name
  {75b753f7-da61-41ef-ba2e-6d34767b963f}, !- Space Name
  Surface,                                !- Outside Boundary Condition
  {230fe85d-9a82-4f32-8b86-6967c0b26ae7}, !- Outside Boundary Condition Object
  NoSun,                                  !- Sun Exposure
  NoWind,                                 !- Wind Exposure
  ,                                       !- View Factor to Ground
  ,                                       !- Number of Vertices
  0, 0, 0,                                !- X,Y,Z Vertex 1 {m}
  0, 5.83647564888264, 0,                 !- X,Y,Z Vertex 2 {m}
  11.6729512977653, 5.83647564888264, 0,  !- X,Y,Z Vertex 3 {m}
  11.6729512977653, 3.048, 0,             !- X,Y,Z Vertex 4 {m}
  5.57695129776527, 3.048, 0,             !- X,Y,Z Vertex 5 {m}
  5.57695129776527, 0, 0;                 !- X,Y,Z Vertex 6 {m}

OS:Surface,
  {16f9701c-3be5-422e-8ce9-b4152f7e9fa7}, !- Handle
  Surface 8,                              !- Name
  Wall,                                   !- Surface Type
  ,                                       !- Construction Name
  {75b753f7-da61-41ef-ba2e-6d34767b963f}, !- Space Name
  Outdoors,                               !- Outside Boundary Condition
  ,                                       !- Outside Boundary Condition Object
  SunExposed,                             !- Sun Exposure
  WindExposed,                            !- Wind Exposure
  ,                                       !- View Factor to Ground
  ,                                       !- Number of Vertices
  0, 5.83647564888264, 2.4384,            !- X,Y,Z Vertex 1 {m}
  0, 5.83647564888264, 0,                 !- X,Y,Z Vertex 2 {m}
  0, 0, 0,                                !- X,Y,Z Vertex 3 {m}
  0, 0, 2.4384;                           !- X,Y,Z Vertex 4 {m}

OS:Surface,
  {05b5aee2-b4a4-4c12-8fdf-2a226126641a}, !- Handle
  Surface 9,                              !- Name
  Wall,                                   !- Surface Type
  ,                                       !- Construction Name
  {75b753f7-da61-41ef-ba2e-6d34767b963f}, !- Space Name
  Outdoors,                               !- Outside Boundary Condition
  ,                                       !- Outside Boundary Condition Object
  SunExposed,                             !- Sun Exposure
  WindExposed,                            !- Wind Exposure
  ,                                       !- View Factor to Ground
  ,                                       !- Number of Vertices
  11.6729512977653, 5.83647564888264, 2.4384, !- X,Y,Z Vertex 1 {m}
  11.6729512977653, 5.83647564888264, 0,  !- X,Y,Z Vertex 2 {m}
  0, 5.83647564888264, 0,                 !- X,Y,Z Vertex 3 {m}
  0, 5.83647564888264, 2.4384;            !- X,Y,Z Vertex 4 {m}

OS:Surface,
  {289cadc6-5b46-4ef4-a2a8-c08d5921e916}, !- Handle
  Surface 10,                             !- Name
  Wall,                                   !- Surface Type
  ,                                       !- Construction Name
  {75b753f7-da61-41ef-ba2e-6d34767b963f}, !- Space Name
  Outdoors,                               !- Outside Boundary Condition
  ,                                       !- Outside Boundary Condition Object
  SunExposed,                             !- Sun Exposure
  WindExposed,                            !- Wind Exposure
  ,                                       !- View Factor to Ground
  ,                                       !- Number of Vertices
  11.6729512977653, 3.048, 2.4384,        !- X,Y,Z Vertex 1 {m}
  11.6729512977653, 3.048, 0,             !- X,Y,Z Vertex 2 {m}
  11.6729512977653, 5.83647564888264, 0,  !- X,Y,Z Vertex 3 {m}
  11.6729512977653, 5.83647564888264, 2.4384; !- X,Y,Z Vertex 4 {m}

OS:Surface,
  {a2e01eff-399c-4760-a4c7-665e4b06320d}, !- Handle
  Surface 11,                             !- Name
  Wall,                                   !- Surface Type
  ,                                       !- Construction Name
  {75b753f7-da61-41ef-ba2e-6d34767b963f}, !- Space Name
  Surface,                                !- Outside Boundary Condition
  {bd651123-ecb0-4d4e-bf13-70f1eec02817}, !- Outside Boundary Condition Object
  NoSun,                                  !- Sun Exposure
  NoWind,                                 !- Wind Exposure
  ,                                       !- View Factor to Ground
  ,                                       !- Number of Vertices
  5.57695129776527, 3.048, 2.4384,        !- X,Y,Z Vertex 1 {m}
  5.57695129776527, 3.048, 0,             !- X,Y,Z Vertex 2 {m}
  11.6729512977653, 3.048, 0,             !- X,Y,Z Vertex 3 {m}
  11.6729512977653, 3.048, 2.4384;        !- X,Y,Z Vertex 4 {m}

OS:Surface,
  {832216c9-6002-4d9b-9981-fad415244b1b}, !- Handle
  Surface 12,                             !- Name
  Wall,                                   !- Surface Type
  ,                                       !- Construction Name
  {75b753f7-da61-41ef-ba2e-6d34767b963f}, !- Space Name
  Surface,                                !- Outside Boundary Condition
  {290f18f1-d638-494d-827b-10f196e54d53}, !- Outside Boundary Condition Object
  NoSun,                                  !- Sun Exposure
  NoWind,                                 !- Wind Exposure
  ,                                       !- View Factor to Ground
  ,                                       !- Number of Vertices
  5.57695129776527, 0, 2.4384,            !- X,Y,Z Vertex 1 {m}
  5.57695129776527, 0, 0,                 !- X,Y,Z Vertex 2 {m}
  5.57695129776527, 3.048, 0,             !- X,Y,Z Vertex 3 {m}
  5.57695129776527, 3.048, 2.4384;        !- X,Y,Z Vertex 4 {m}

OS:Surface,
  {1662afbf-f93d-4c1b-9014-01112d825027}, !- Handle
  Surface 13,                             !- Name
  Wall,                                   !- Surface Type
  ,                                       !- Construction Name
  {75b753f7-da61-41ef-ba2e-6d34767b963f}, !- Space Name
  Outdoors,                               !- Outside Boundary Condition
  ,                                       !- Outside Boundary Condition Object
  SunExposed,                             !- Sun Exposure
  WindExposed,                            !- Wind Exposure
  ,                                       !- View Factor to Ground
  ,                                       !- Number of Vertices
  0, 0, 2.4384,                           !- X,Y,Z Vertex 1 {m}
  0, 0, 0,                                !- X,Y,Z Vertex 2 {m}
  5.57695129776527, 0, 0,                 !- X,Y,Z Vertex 3 {m}
  5.57695129776527, 0, 2.4384;            !- X,Y,Z Vertex 4 {m}

OS:Surface,
  {013adb33-07e2-4a62-8c40-771ceee3a05e}, !- Handle
  Surface 14,                             !- Name
  RoofCeiling,                            !- Surface Type
  ,                                       !- Construction Name
  {75b753f7-da61-41ef-ba2e-6d34767b963f}, !- Space Name
  Surface,                                !- Outside Boundary Condition
  {e853efe7-287f-4f5b-b487-657c258f0297}, !- Outside Boundary Condition Object
  NoSun,                                  !- Sun Exposure
  NoWind,                                 !- Wind Exposure
  ,                                       !- View Factor to Ground
  ,                                       !- Number of Vertices
  5.57695129776527, 0, 2.4384,            !- X,Y,Z Vertex 1 {m}
  5.57695129776527, 3.048, 2.4384,        !- X,Y,Z Vertex 2 {m}
  11.6729512977653, 3.048, 2.4384,        !- X,Y,Z Vertex 3 {m}
  11.6729512977653, 5.83647564888264, 2.4384, !- X,Y,Z Vertex 4 {m}
  0, 5.83647564888264, 2.4384,            !- X,Y,Z Vertex 5 {m}
  0, 0, 2.4384;                           !- X,Y,Z Vertex 6 {m}

OS:SpaceType,
  {78f90291-6454-48c2-89bb-0152621130a7}, !- Handle
  Space Type 2,                           !- Name
  ,                                       !- Default Construction Set Name
  ,                                       !- Default Schedule Set Name
  ,                                       !- Group Rendering Name
  ,                                       !- Design Specification Outdoor Air Object Name
  ,                                       !- Standards Template
  ,                                       !- Standards Building Type
  living;                                 !- Standards Space Type

OS:Space,
  {a9960311-e66b-4c90-9637-663928077696}, !- Handle
  living space|story 2,                   !- Name
  {78f90291-6454-48c2-89bb-0152621130a7}, !- Space Type Name
  ,                                       !- Default Construction Set Name