!- NOTE: Auto-generated from /test/osw_files/SFD_Successful_EnergyPlus_Run_AMY_PV_TwoDays.osw

OS:Version,
  {23c55fa8-fc83-41fc-91ee-31fdbb35d94a}, !- Handle
  2.9.0;                                  !- Version Identifier

OS:SimulationControl,
  {65f75e24-6b8d-4b79-9708-a8dd98405ddf}, !- Handle
  ,                                       !- Do Zone Sizing Calculation
  ,                                       !- Do System Sizing Calculation
  ,                                       !- Do Plant Sizing Calculation
  No;                                     !- Run Simulation for Sizing Periods

OS:Timestep,
  {78c3f10f-4fdb-43fc-9b2c-0f02e470c983}, !- Handle
  6;                                      !- Number of Timesteps per Hour

OS:ShadowCalculation,
  {f901a38b-031a-4d0d-889e-0ebe0a52ca3d}, !- Handle
  20,                                     !- Calculation Frequency
  200;                                    !- Maximum Figures in Shadow Overlap Calculations

OS:SurfaceConvectionAlgorithm:Outside,
  {5ba81b22-2e0f-449d-a6b6-8960ebab47e2}, !- Handle
  DOE-2;                                  !- Algorithm

OS:SurfaceConvectionAlgorithm:Inside,
  {bea103ab-4a0b-4c20-a72d-230d54366a17}, !- Handle
  TARP;                                   !- Algorithm

OS:ZoneCapacitanceMultiplier:ResearchSpecial,
  {614f762e-6f7e-4ff2-9b25-50eb02c5b8ca}, !- Handle
  ,                                       !- Temperature Capacity Multiplier
  15,                                     !- Humidity Capacity Multiplier
  ;                                       !- Carbon Dioxide Capacity Multiplier

OS:RunPeriod,
  {345ef7eb-ba50-4245-a515-1b6524a0ca7e}, !- Handle
  Run Period 1,                           !- Name
  1,                                      !- Begin Month
  23,                                     !- Begin Day of Month
  1,                                      !- End Month
  24,                                     !- End Day of Month
  ,                                       !- Use Weather File Holidays and Special Days
  ,                                       !- Use Weather File Daylight Saving Period
  ,                                       !- Apply Weekend Holiday Rule
  ,                                       !- Use Weather File Rain Indicators
  ,                                       !- Use Weather File Snow Indicators
  ;                                       !- Number of Times Runperiod to be Repeated

OS:YearDescription,
  {ad0b8c0c-ef16-482c-bc7d-686fb5a275ff}, !- Handle
  2014,                                   !- Calendar Year
  ,                                       !- Day of Week for Start Day
  ;                                       !- Is Leap Year

OS:WeatherFile,
  {60ec4277-72a4-4088-9934-1e3b2c3965c0}, !- Handle
  Boulder,                                !- City
  CO,                                     !- State Province Region
  US,                                     !- Country
  NSRDB 2.0.1 2014 AMY,                   !- Data Source
  0-20000-0-72469,                        !- WMO Number
  40.13,                                  !- Latitude {deg}
  -105.22,                                !- Longitude {deg}
  -7,                                     !- Time Zone {hr}
  1615.5,                                 !- Elevation {m}
  file:../weather/0465925_US_CO_Boulder_8013_0-20000-0-72469_40.13_-105.22_NSRDB_2.0.1_AMY_2014.epw, !- Url
  A63910BF;                               !- Checksum

OS:AdditionalProperties,
  {5d599fbc-9725-4339-a8ab-2b1dd7aa2e60}, !- Handle
  {60ec4277-72a4-4088-9934-1e3b2c3965c0}, !- Object Name
  EPWHeaderCity,                          !- Feature Name 1
  String,                                 !- Feature Data Type 1
  Boulder,                                !- Feature Value 1
  EPWHeaderState,                         !- Feature Name 2
  String,                                 !- Feature Data Type 2
  CO,                                     !- Feature Value 2
  EPWHeaderCountry,                       !- Feature Name 3
  String,                                 !- Feature Data Type 3
  US,                                     !- Feature Value 3
  EPWHeaderDataSource,                    !- Feature Name 4
  String,                                 !- Feature Data Type 4
  NSRDB 2.0.1 2014 AMY,                   !- Feature Value 4
  EPWHeaderStation,                       !- Feature Name 5
  String,                                 !- Feature Data Type 5
  0-20000-0-72469,                        !- Feature Value 5
  EPWHeaderLatitude,                      !- Feature Name 6
  Double,                                 !- Feature Data Type 6
  40.130000000000003,                     !- Feature Value 6
  EPWHeaderLongitude,                     !- Feature Name 7
  Double,                                 !- Feature Data Type 7
  -105.22,                                !- Feature Value 7
  EPWHeaderTimezone,                      !- Feature Name 8
  Double,                                 !- Feature Data Type 8
  -7,                                     !- Feature Value 8
  EPWHeaderAltitude,                      !- Feature Name 9
  Double,                                 !- Feature Data Type 9
  5300.1968503937005,                     !- Feature Value 9
  EPWHeaderLocalPressure,                 !- Feature Name 10
  Double,                                 !- Feature Data Type 10
  0.82279578489595584,                    !- Feature Value 10
  EPWHeaderRecordsPerHour,                !- Feature Name 11
  Double,                                 !- Feature Data Type 11
  1,                                      !- Feature Value 11
  EPWDataAnnualAvgDrybulb,                !- Feature Name 12
  Double,                                 !- Feature Data Type 12
  46.153876712328739,                     !- Feature Value 12
  EPWDataAnnualMinDrybulb,                !- Feature Name 13
  Double,                                 !- Feature Data Type 13
  -8.3200000000000003,                    !- Feature Value 13
  EPWDataAnnualMaxDrybulb,                !- Feature Name 14
  Double,                                 !- Feature Data Type 14
  94.819999999999993,                     !- Feature Value 14
  EPWDataCDD50F,                          !- Feature Name 15
  Double,                                 !- Feature Data Type 15
  2020.8374999999992,                     !- Feature Value 15
  EPWDataCDD65F,                          !- Feature Name 16
  Double,                                 !- Feature Data Type 16
  257.56500000000011,                     !- Feature Value 16
  EPWDataHDD50F,                          !- Feature Name 17
  Double,                                 !- Feature Data Type 17
  3424.6724999999997,                     !- Feature Value 17
  EPWDataHDD65F,                          !- Feature Name 18
  Double,                                 !- Feature Data Type 18
  7136.400000000006,                      !- Feature Value 18
  EPWDataAnnualAvgWindspeed,              !- Feature Name 19
  Double,                                 !- Feature Data Type 19
  3.2218264840182589,                     !- Feature Value 19
  EPWDataMonthlyAvgDrybulbs,              !- Feature Name 20
  String,                                 !- Feature Data Type 20
  26.308951612903222&#4428.098928571428576&#4435.44443548387097&#4442.68825000000001&#4451.39161290322581&#4462.69400000000002&#4468.69677419354842&#4464.85846774193544&#4460.864999999999995&#4450.01451612903226&#4433.357&#4428.16483870967742, !- Feature Value 20
  EPWDataGroundMonthlyTemps,              !- Feature Name 21
  String,                                 !- Feature Data Type 21
  38.52739411432134&#4435.285469995369624&#4435.025845085692424&#4436.56430373078814&#4442.74035789429769&#4448.88764137749348&#4454.217007620475954&#4457.59303006231386&#4457.87984171192119&#4455.134014887414594&#4449.940550612577795&#4443.98184074832068, !- Feature Value 21
  EPWDataWSF,                             !- Feature Name 22
  Double,                                 !- Feature Data Type 22
  0.55793636363636512,                    !- Feature Value 22
  EPWDataMonthlyAvgDailyHighDrybulbs,     !- Feature Name 23
  String,                                 !- Feature Data Type 23
  37.034193548387094&#4439.82357142857143&#4449.134838709677425&#4456.798&#4465.19548387096775&#4479.982&#4483.56129032258065&#4478.8&#4476.80199999999999&#4465.96774193548387&#4446.268&#4439.14193548387097, !- Feature Value 23
  EPWDataMonthlyAvgDailyLowDrybulbs,      !- Feature Name 24
  String,                                 !- Feature Data Type 24
  17.68709677419355&#4418.500000000000007&#4424.858064516129033&#4429.858&#4437.61483870967742&#4446.808&#4455.278064516129035&#4452.81032258064516&#4447.798&#4438.46258064516129&#4423.336&#4420.64258064516129, !- Feature Value 24
  EPWDesignHeatingDrybulb,                !- Feature Name 25
  Double,                                 !- Feature Data Type 25
  2.8399999999999999,                     !- Feature Value 25
  EPWDesignHeatingWindspeed,              !- Feature Name 26
  Double,                                 !- Feature Data Type 26
  2.8645161290322578,                     !- Feature Value 26
  EPWDesignCoolingDrybulb,                !- Feature Name 27
  Double,                                 !- Feature Data Type 27
  87.439999999999998,                     !- Feature Value 27
  EPWDesignCoolingWetbulb,                !- Feature Name 28
  Double,                                 !- Feature Data Type 28
  58.634821912138641,                     !- Feature Value 28
  EPWDesignCoolingHumidityRatio,          !- Feature Name 29
  Double,                                 !- Feature Data Type 29
  0.0059863200317437151,                  !- Feature Value 29
  EPWDesignCoolingWindspeed,              !- Feature Name 30
  Double,                                 !- Feature Data Type 30
  1.9312499999999999,                     !- Feature Value 30
  EPWDesignDailyTemperatureRange,         !- Feature Name 31
  Double,                                 !- Feature Data Type 31
  25.989677419354834,                     !- Feature Value 31
  EPWDesignDehumidDrybulb,                !- Feature Name 32
  Double,                                 !- Feature Data Type 32
  64.679252336448599,                     !- Feature Value 32
  EPWDesignDehumidHumidityRatio,          !- Feature Name 33
  Double,                                 !- Feature Data Type 33
  0.010292782366117819,                   !- Feature Value 33
  EPWDesignCoolingDirectNormal,           !- Feature Name 34
  Double,                                 !- Feature Data Type 34
  1016,                                   !- Feature Value 34
  EPWDesignCoolingDiffuseHorizontal,      !- Feature Name 35
  Double,                                 !- Feature Data Type 35
  96;                                     !- Feature Value 35

OS:Site,
  {cb8f6f9b-7473-4fca-b750-80da8d3b65dd}, !- Handle
  Boulder_CO_US,                          !- Name
  40.13,                                  !- Latitude {deg}
  -105.22,                                !- Longitude {deg}
  -7,                                     !- Time Zone {hr}
  1615.5,                                 !- Elevation {m}
  ;                                       !- Terrain

OS:Site:WaterMainsTemperature,
  {5fc6325e-7bbe-43d9-abaa-1bdec1bb66ff}, !- Handle
  Correlation,                            !- Calculation Method
  ,                                       !- Temperature Schedule Name
  7.86326484018263,                       !- Annual Average Outdoor Air Temperature {C}
  23.5487903225807;                       !- Maximum Difference In Monthly Average Outdoor Air Temperatures {deltaC}

OS:RunPeriodControl:DaylightSavingTime,
  {299cb123-d1d2-43ad-badb-bc992da11a18}, !- Handle
  4/7,                                    !- Start Date
  10/26;                                  !- End Date

OS:Site:GroundTemperature:Deep,
  {67573e30-0b7a-4fa0-95fc-734ad3aace77}, !- Handle
  7.86326484018263,                       !- January Deep Ground Temperature {C}
  7.86326484018263,                       !- February Deep Ground Temperature {C}
  7.86326484018263,                       !- March Deep Ground Temperature {C}
  7.86326484018263,                       !- April Deep Ground Temperature {C}
  7.86326484018263,                       !- May Deep Ground Temperature {C}
  7.86326484018263,                       !- June Deep Ground Temperature {C}
  7.86326484018263,                       !- July Deep Ground Temperature {C}
  7.86326484018263,                       !- August Deep Ground Temperature {C}
  7.86326484018263,                       !- September Deep Ground Temperature {C}
  7.86326484018263,                       !- October Deep Ground Temperature {C}
  7.86326484018263,                       !- November Deep Ground Temperature {C}
  7.86326484018263;                       !- December Deep Ground Temperature {C}

OS:Building,
  {0a856b07-382e-4ce0-97ba-f3693de72ab8}, !- Handle
  Building 1,                             !- Name
  ,                                       !- Building Sector Type
  ,                                       !- North Axis {deg}
  ,                                       !- Nominal Floor to Floor Height {m}
  ,                                       !- Space Type Name
  ,                                       !- Default Construction Set Name
  ,                                       !- Default Schedule Set Name
  2,                                      !- Standards Number of Stories
  2,                                      !- Standards Number of Above Ground Stories
  ,                                       !- Standards Template
  singlefamilydetached,                   !- Standards Building Type
  1;                                      !- Standards Number of Living Units

OS:AdditionalProperties,
  {c8faa4fc-4c5f-4747-b2a4-b53daf0a0969}, !- Handle
  {0a856b07-382e-4ce0-97ba-f3693de72ab8}, !- Object Name
  Dishwasher Max Flow Rate,               !- Feature Name 1
  Double,                                 !- Feature Data Type 1
  2.8186,                                 !- Feature Value 1
  Dishwasher Total Flow Rate,             !- Feature Name 2
  Double,                                 !- Feature Data Type 2
  4.4027178080000002,                     !- Feature Value 2
  Clothes Washer Max Flow Rate,           !- Feature Name 3
  Double,                                 !- Feature Data Type 3
  5.0354000000000001,                     !- Feature Value 3
  Clothes Washer Total Flow Rate,         !- Feature Name 4
  Double,                                 !- Feature Data Type 4
  4.5565123290000002,                     !- Feature Value 4
  Shower Max Flow Rate,                   !- Feature Name 5
  Double,                                 !- Feature Data Type 5
  4.0789999999999997,                     !- Feature Value 5
  Shower Total Flow Rate,                 !- Feature Name 6
  Double,                                 !- Feature Data Type 6
  26.240887669999999,                     !- Feature Value 6
  Sink Max Flow Rate,                     !- Feature Name 7
  Double,                                 !- Feature Data Type 7
  3.2738999999999998,                     !- Feature Value 7
  Sink Total Flow Rate,                   !- Feature Name 8
  Double,                                 !- Feature Data Type 8
  24.292169860000001,                     !- Feature Value 8
  Bath Max Flow Rate,                     !- Feature Name 9
  Double,                                 !- Feature Data Type 9
  7.0312000000000001,                     !- Feature Value 9
  Bath Total Flow Rate,                   !- Feature Name 10
  Double,                                 !- Feature Data Type 10
  7.2381150679999999,                     !- Feature Value 10
  Schedule Path,                          !- Feature Name 11
  String,                                 !- Feature Data Type 11
  C:/OpenStudio/appliances_schedules.csv, !- Feature Value 11
  Total Units Represented,                !- Feature Name 12
  Integer,                                !- Feature Data Type 12
  1,                                      !- Feature Value 12
  Total Units Modeled,                    !- Feature Name 13
  Integer,                                !- Feature Data Type 13
  1;                                      !- Feature Value 13

OS:ThermalZone,
  {d006686b-f9d9-4670-a92a-5597480822f9}, !- Handle
  living zone,                            !- Name
  ,                                       !- Multiplier
  ,                                       !- Ceiling Height {m}
  ,                                       !- Volume {m3}
  ,                                       !- Floor Area {m2}
  ,                                       !- Zone Inside Convection Algorithm
  ,                                       !- Zone Outside Convection Algorithm
  ,                                       !- Zone Conditioning Equipment List Name
  {8fbbb85c-edfa-43e7-ba2f-7fbdb532eb8c}, !- Zone Air Inlet Port List
  {53af71c8-fb22-49de-a83f-968985a81390}, !- Zone Air Exhaust Port List
  {2721ff3e-62db-4018-ad0d-f78190360021}, !- Zone Air Node Name
  {14dd2023-e5ec-4824-9678-8a980cde0674}, !- Zone Return Air Port List
  ,                                       !- Primary Daylighting Control Name
  ,                                       !- Fraction of Zone Controlled by Primary Daylighting Control
  ,                                       !- Secondary Daylighting Control Name
  ,                                       !- Fraction of Zone Controlled by Secondary Daylighting Control
  ,                                       !- Illuminance Map Name
  ,                                       !- Group Rendering Name
  ,                                       !- Thermostat Name
  No;                                     !- Use Ideal Air Loads

OS:Node,
  {9fe6e614-0bea-45b3-97f6-7422d987720a}, !- Handle
  Node 1,                                 !- Name
  {2721ff3e-62db-4018-ad0d-f78190360021}, !- Inlet Port
  ;                                       !- Outlet Port

OS:Connection,
  {2721ff3e-62db-4018-ad0d-f78190360021}, !- Handle
  {86898001-2f9c-4adc-8fe3-0d0dc71ebf0d}, !- Name
  {d006686b-f9d9-4670-a92a-5597480822f9}, !- Source Object
  11,                                     !- Outlet Port
  {9fe6e614-0bea-45b3-97f6-7422d987720a}, !- Target Object
  2;                                      !- Inlet Port

OS:PortList,
  {8fbbb85c-edfa-43e7-ba2f-7fbdb532eb8c}, !- Handle
  {ebfa4b07-3c8a-47f8-a0bd-46c2d0135ec5}, !- Name
  {d006686b-f9d9-4670-a92a-5597480822f9}; !- HVAC Component

OS:PortList,
  {53af71c8-fb22-49de-a83f-968985a81390}, !- Handle
  {7fbaa8d3-fd33-42d8-af34-3e9dfb056a1f}, !- Name
  {d006686b-f9d9-4670-a92a-5597480822f9}; !- HVAC Component

OS:PortList,
  {14dd2023-e5ec-4824-9678-8a980cde0674}, !- Handle
  {68cd49f1-b694-465e-835f-ab3556f5a9a2}, !- Name
  {d006686b-f9d9-4670-a92a-5597480822f9}; !- HVAC Component

OS:Sizing:Zone,
  {12011a1b-a118-4726-9620-fa72fb447ede}, !- Handle
  {d006686b-f9d9-4670-a92a-5597480822f9}, !- Zone or ZoneList Name
  SupplyAirTemperature,                   !- Zone Cooling Design Supply Air Temperature Input Method
  14,                                     !- Zone Cooling Design Supply Air Temperature {C}
  11.11,                                  !- Zone Cooling Design Supply Air Temperature Difference {deltaC}
  SupplyAirTemperature,                   !- Zone Heating Design Supply Air Temperature Input Method
  40,                                     !- Zone Heating Design Supply Air Temperature {C}
  11.11,                                  !- Zone Heating Design Supply Air Temperature Difference {deltaC}
  0.0085,                                 !- Zone Cooling Design Supply Air Humidity Ratio {kg-H2O/kg-air}
  0.008,                                  !- Zone Heating Design Supply Air Humidity Ratio {kg-H2O/kg-air}
  ,                                       !- Zone Heating Sizing Factor
  ,                                       !- Zone Cooling Sizing Factor
  DesignDay,                              !- Cooling Design Air Flow Method
  ,                                       !- Cooling Design Air Flow Rate {m3/s}
  ,                                       !- Cooling Minimum Air Flow per Zone Floor Area {m3/s-m2}
  ,                                       !- Cooling Minimum Air Flow {m3/s}
  ,                                       !- Cooling Minimum Air Flow Fraction
  DesignDay,                              !- Heating Design Air Flow Method
  ,                                       !- Heating Design Air Flow Rate {m3/s}
  ,                                       !- Heating Maximum Air Flow per Zone Floor Area {m3/s-m2}
  ,                                       !- Heating Maximum Air Flow {m3/s}
  ,                                       !- Heating Maximum Air Flow Fraction
  ,                                       !- Design Zone Air Distribution Effectiveness in Cooling Mode
  ,                                       !- Design Zone Air Distribution Effectiveness in Heating Mode
  No,                                     !- Account for Dedicated Outdoor Air System
  NeutralSupplyAir,                       !- Dedicated Outdoor Air System Control Strategy
  autosize,                               !- Dedicated Outdoor Air Low Setpoint Temperature for Design {C}
  autosize;                               !- Dedicated Outdoor Air High Setpoint Temperature for Design {C}

OS:ZoneHVAC:EquipmentList,
  {63233132-c22a-4492-bd49-16f93317c6a5}, !- Handle
  Zone HVAC Equipment List 1,             !- Name
  {d006686b-f9d9-4670-a92a-5597480822f9}; !- Thermal Zone

OS:Space,
  {d55a72cc-dfef-4460-8353-2f87726de5ee}, !- Handle
  living space,                           !- Name
  {bdd96939-8482-4a0f-a9d8-8dbf35841ecd}, !- Space Type Name
  ,                                       !- Default Construction Set Name
  ,                                       !- Default Schedule Set Name
  -0,                                     !- Direction of Relative North {deg}
  0,                                      !- X Origin {m}
  0,                                      !- Y Origin {m}
  0,                                      !- Z Origin {m}
  ,                                       !- Building Story Name
  {d006686b-f9d9-4670-a92a-5597480822f9}, !- Thermal Zone Name
  ,                                       !- Part of Total Floor Area
  ,                                       !- Design Specification Outdoor Air Object Name
  {875b0e5d-55d5-489a-964c-4ffcb9afaeec}; !- Building Unit Name

OS:Surface,
  {228633b1-9355-433f-9524-09fb246b2f0b}, !- Handle
  Surface 1,                              !- Name
  Floor,                                  !- Surface Type
  ,                                       !- Construction Name
  {d55a72cc-dfef-4460-8353-2f87726de5ee}, !- Space Name
  Foundation,                             !- Outside Boundary Condition
  ,                                       !- Outside Boundary Condition Object
  NoSun,                                  !- Sun Exposure
  NoWind,                                 !- Wind Exposure
  ,                                       !- View Factor to Ground
  ,                                       !- Number of Vertices
  0, 0, 0,                                !- X,Y,Z Vertex 1 {m}
  0, 1.524, 0,                            !- X,Y,Z Vertex 2 {m}
  3.048, 1.524, 0,                        !- X,Y,Z Vertex 3 {m}
  3.048, 0, 0;                            !- X,Y,Z Vertex 4 {m}

OS:Surface,
  {87e4ef97-aaa9-4403-8490-10c8e6376a02}, !- Handle
  Surface 2,                              !- Name
  Wall,                                   !- Surface Type
  ,                                       !- Construction Name
  {d55a72cc-dfef-4460-8353-2f87726de5ee}, !- Space Name
  Outdoors,                               !- Outside Boundary Condition
  ,                                       !- Outside Boundary Condition Object
  SunExposed,                             !- Sun Exposure
  WindExposed,                            !- Wind Exposure
  ,                                       !- View Factor to Ground
  ,                                       !- Number of Vertices
  0, 1.524, 2.4384,                       !- X,Y,Z Vertex 1 {m}
  0, 1.524, 0,                            !- X,Y,Z Vertex 2 {m}
  0, 0, 0,                                !- X,Y,Z Vertex 3 {m}
  0, 0, 2.4384;                           !- X,Y,Z Vertex 4 {m}

OS:Surface,
  {fba94b7b-5147-4f90-afcc-0858b129718c}, !- Handle
  Surface 3,                              !- Name
  Wall,                                   !- Surface Type
  ,                                       !- Construction Name
  {d55a72cc-dfef-4460-8353-2f87726de5ee}, !- Space Name
  Outdoors,                               !- Outside Boundary Condition
  ,                                       !- Outside Boundary Condition Object
  SunExposed,                             !- Sun Exposure
  WindExposed,                            !- Wind Exposure
  ,                                       !- View Factor to Ground
  ,                                       !- Number of Vertices
  3.048, 1.524, 2.4384,                   !- X,Y,Z Vertex 1 {m}
  3.048, 1.524, 0,                        !- X,Y,Z Vertex 2 {m}
  0, 1.524, 0,                            !- X,Y,Z Vertex 3 {m}
  0, 1.524, 2.4384;                       !- X,Y,Z Vertex 4 {m}

OS:Surface,
  {8efb62eb-c665-40ce-ab6c-139e58184827}, !- Handle
  Surface 4,                              !- Name
  Wall,                                   !- Surface Type
  ,                                       !- Construction Name
  {d55a72cc-dfef-4460-8353-2f87726de5ee}, !- Space Name
  Outdoors,                               !- Outside Boundary Condition
  ,                                       !- Outside Boundary Condition Object
  SunExposed,                             !- Sun Exposure
  WindExposed,                            !- Wind Exposure
  ,                                       !- View Factor to Ground
  ,                                       !- Number of Vertices
  3.048, 0, 2.4384,                       !- X,Y,Z Vertex 1 {m}
  3.048, 0, 0,                            !- X,Y,Z Vertex 2 {m}
  3.048, 1.524, 0,                        !- X,Y,Z Vertex 3 {m}
  3.048, 1.524, 2.4384;                   !- X,Y,Z Vertex 4 {m}

OS:Surface,
  {aa6bf1e2-23b4-4875-95d1-75a8feae9f2a}, !- Handle
  Surface 5,                              !- Name
  Wall,                                   !- Surface Type
  ,                                       !- Construction Name
  {d55a72cc-dfef-4460-8353-2f87726de5ee}, !- Space Name
  Outdoors,                               !- Outside Boundary Condition
  ,                                       !- Outside Boundary Condition Object
  SunExposed,                             !- Sun Exposure
  WindExposed,                            !- Wind Exposure
  ,                                       !- View Factor to Ground
  ,                                       !- Number of Vertices
  0, 0, 2.4384,                           !- X,Y,Z Vertex 1 {m}
  0, 0, 0,                                !- X,Y,Z Vertex 2 {m}
  3.048, 0, 0,                            !- X,Y,Z Vertex 3 {m}
  3.048, 0, 2.4384;                       !- X,Y,Z Vertex 4 {m}

OS:Surface,
  {c5f9290f-2aaf-4476-9b08-43f4fa7b1fb0}, !- Handle
  Surface 6,                              !- Name
  RoofCeiling,                            !- Surface Type
  ,                                       !- Construction Name
  {d55a72cc-dfef-4460-8353-2f87726de5ee}, !- Space Name
  Surface,                                !- Outside Boundary Condition
  {cc0ae643-879a-46f1-9126-93c366c82b36}, !- Outside Boundary Condition Object
  NoSun,                                  !- Sun Exposure
  NoWind,                                 !- Wind Exposure
  ,                                       !- View Factor to Ground
  ,                                       !- Number of Vertices
  3.048, 0, 2.4384,                       !- X,Y,Z Vertex 1 {m}
  3.048, 1.524, 2.4384,                   !- X,Y,Z Vertex 2 {m}
  0, 1.524, 2.4384,                       !- X,Y,Z Vertex 3 {m}
  0, 0, 2.4384;                           !- X,Y,Z Vertex 4 {m}

OS:SpaceType,
  {bdd96939-8482-4a0f-a9d8-8dbf35841ecd}, !- Handle
  Space Type 1,                           !- Name
  ,                                       !- Default Construction Set Name
  ,                                       !- Default Schedule Set Name
  ,                                       !- Group Rendering Name
  ,                                       !- Design Specification Outdoor Air Object Name
  ,                                       !- Standards Template
  ,                                       !- Standards Building Type
  living;                                 !- Standards Space Type

OS:Space,
  {df4e3cac-998a-4955-9027-b45a8ca40fa4}, !- Handle
  living space|story 2,                   !- Name
  {bdd96939-8482-4a0f-a9d8-8dbf35841ecd}, !- Space Type Name
  ,                                       !- Default Construction Set Name
  ,                                       !- Default Schedule Set Name
  -0,                                     !- Direction of Relative North {deg}
  0,                                      !- X Origin {m}
  0,                                      !- Y Origin {m}
  2.4384,                                 !- Z Origin {m}
  ,                                       !- Building Story Name
  {d006686b-f9d9-4670-a92a-5597480822f9}, !- Thermal Zone Name
  ,                                       !- Part of Total Floor Area
  ,                                       !- Design Specification Outdoor Air Object Name
  {875b0e5d-55d5-489a-964c-4ffcb9afaeec}; !- Building Unit Name

OS:Surface,
  {cc0ae643-879a-46f1-9126-93c366c82b36}, !- Handle