!- NOTE: Auto-generated from /test/osw_files/SFD_HVACSizing_Load_1story_S_UA_Unvented_NoOverhangs_NoIntShading_ERV.osw

OS:Version,
  {eeb1f7df-d0db-42b9-a2fa-229c24083fdc}, !- Handle
  2.9.1;                                  !- Version Identifier

OS:SimulationControl,
  {805f60cc-c06f-428e-80eb-871e504f39a4}, !- Handle
  ,                                       !- Do Zone Sizing Calculation
  ,                                       !- Do System Sizing Calculation
  ,                                       !- Do Plant Sizing Calculation
  No;                                     !- Run Simulation for Sizing Periods

OS:Timestep,
  {16cf0087-3a78-4d68-9a0d-01f88e623eda}, !- Handle
  6;                                      !- Number of Timesteps per Hour

OS:ShadowCalculation,
  {763095b9-f89b-450f-88f8-5fdee7753650}, !- Handle
  20,                                     !- Calculation Frequency
  200;                                    !- Maximum Figures in Shadow Overlap Calculations

OS:SurfaceConvectionAlgorithm:Outside,
  {4e598730-5935-4f60-af47-bb27b83de89d}, !- Handle
  DOE-2;                                  !- Algorithm

OS:SurfaceConvectionAlgorithm:Inside,
  {fe73554d-cf89-46f5-91c4-6d183256bf80}, !- Handle
  TARP;                                   !- Algorithm

OS:ZoneCapacitanceMultiplier:ResearchSpecial,
  {61e9d780-4ba3-4d8d-b4aa-f8a1cedaaaae}, !- Handle
  ,                                       !- Temperature Capacity Multiplier
  15,                                     !- Humidity Capacity Multiplier
  ;                                       !- Carbon Dioxide Capacity Multiplier

OS:RunPeriod,
  {0ab4b724-0f46-4bb6-85ab-f5c2be3f4efd}, !- Handle
  Run Period 1,                           !- Name
  1,                                      !- Begin Month
  1,                                      !- Begin Day of Month
  12,                                     !- End Month
  31,                                     !- End Day of Month
  ,                                       !- Use Weather File Holidays and Special Days
  ,                                       !- Use Weather File Daylight Saving Period
  ,                                       !- Apply Weekend Holiday Rule
  ,                                       !- Use Weather File Rain Indicators
  ,                                       !- Use Weather File Snow Indicators
  ;                                       !- Number of Times Runperiod to be Repeated

OS:YearDescription,
  {3340ebab-1d85-4261-9e91-c9f910436138}, !- Handle
  2007,                                   !- Calendar Year
  ,                                       !- Day of Week for Start Day
  ;                                       !- Is Leap Year

OS:WeatherFile,
  {025caebb-cd2b-4b9b-bdcd-83ffc339ebea}, !- Handle
  Denver Intl Ap,                         !- City
  CO,                                     !- State Province Region
  USA,                                    !- Country
  TMY3,                                   !- Data Source
  725650,                                 !- WMO Number
  39.83,                                  !- Latitude {deg}
  -104.65,                                !- Longitude {deg}
  -7,                                     !- Time Zone {hr}
  1650,                                   !- Elevation {m}
  file:../weather/USA_CO_Denver.Intl.AP.725650_TMY3.epw, !- Url
  E23378AA;                               !- Checksum

OS:AdditionalProperties,
  {7e9fdc87-e87f-4936-b0fc-0378f0f2e4a1}, !- Handle
  {025caebb-cd2b-4b9b-bdcd-83ffc339ebea}, !- Object Name
  EPWHeaderCity,                          !- Feature Name 1
  String,                                 !- Feature Data Type 1
  Denver Intl Ap,                         !- Feature Value 1
  EPWHeaderState,                         !- Feature Name 2
  String,                                 !- Feature Data Type 2
  CO,                                     !- Feature Value 2
  EPWHeaderCountry,                       !- Feature Name 3
  String,                                 !- Feature Data Type 3
  USA,                                    !- Feature Value 3
  EPWHeaderDataSource,                    !- Feature Name 4
  String,                                 !- Feature Data Type 4
  TMY3,                                   !- Feature Value 4
  EPWHeaderStation,                       !- Feature Name 5
  String,                                 !- Feature Data Type 5
  725650,                                 !- Feature Value 5
  EPWHeaderLatitude,                      !- Feature Name 6
  Double,                                 !- Feature Data Type 6
  39.829999999999998,                     !- Feature Value 6
  EPWHeaderLongitude,                     !- Feature Name 7
  Double,                                 !- Feature Data Type 7
  -104.65000000000001,                    !- Feature Value 7
  EPWHeaderTimezone,                      !- Feature Name 8
  Double,                                 !- Feature Data Type 8
  -7,                                     !- Feature Value 8
  EPWHeaderAltitude,                      !- Feature Name 9
  Double,                                 !- Feature Data Type 9
  5413.3858267716532,                     !- Feature Value 9
  EPWHeaderLocalPressure,                 !- Feature Name 10
  Double,                                 !- Feature Data Type 10
  0.81937567683596546,                    !- Feature Value 10
  EPWHeaderRecordsPerHour,                !- Feature Name 11
  Double,                                 !- Feature Data Type 11
  0,                                      !- Feature Value 11
  EPWDataAnnualAvgDrybulb,                !- Feature Name 12
  Double,                                 !- Feature Data Type 12
  51.575616438356228,                     !- Feature Value 12
  EPWDataAnnualMinDrybulb,                !- Feature Name 13
  Double,                                 !- Feature Data Type 13
  -2.9200000000000017,                    !- Feature Value 13
  EPWDataAnnualMaxDrybulb,                !- Feature Name 14
  Double,                                 !- Feature Data Type 14
  104,                                    !- Feature Value 14
  EPWDataCDD50F,                          !- Feature Name 15
  Double,                                 !- Feature Data Type 15
  3072.2925000000005,                     !- Feature Value 15
  EPWDataCDD65F,                          !- Feature Name 16
  Double,                                 !- Feature Data Type 16
  883.62000000000035,                     !- Feature Value 16
  EPWDataHDD50F,                          !- Feature Name 17
  Double,                                 !- Feature Data Type 17
  2497.1925000000001,                     !- Feature Value 17
  EPWDataHDD65F,                          !- Feature Name 18
  Double,                                 !- Feature Data Type 18
  5783.5200000000013,                     !- Feature Value 18
  EPWDataAnnualAvgWindspeed,              !- Feature Name 19
  Double,                                 !- Feature Data Type 19
  3.9165296803649667,                     !- Feature Value 19
  EPWDataMonthlyAvgDrybulbs,              !- Feature Name 20
  String,                                 !- Feature Data Type 20
  33.4191935483871&#4431.90142857142857&#4443.02620967741937&#4442.48624999999999&#4459.877741935483854&#4473.57574999999997&#4472.07975806451608&#4472.70008064516134&#4466.49200000000006&#4450.079112903225806&#4437.218250000000005&#4434.582177419354835, !- Feature Value 20
  EPWDataGroundMonthlyTemps,              !- Feature Name 21
  String,                                 !- Feature Data Type 21
  44.08306285945173&#4440.89570904991865&#4440.64045432632048&#4442.153016571250646&#4448.225111118704206&#4454.268919273837525&#4459.508577937551024&#4462.82777283423508&#4463.10975667174995&#4460.41014950381947&#4455.304105212311526&#4449.445696474514364, !- Feature Value 21
  EPWDataWSF,                             !- Feature Name 22
  Double,                                 !- Feature Data Type 22
  0.58999999999999997,                    !- Feature Value 22
  EPWDataMonthlyAvgDailyHighDrybulbs,     !- Feature Name 23
  String,                                 !- Feature Data Type 23
  47.41032258064516&#4446.58642857142857&#4455.15032258064517&#4453.708&#4472.80193548387098&#4488.67600000000002&#4486.1858064516129&#4485.87225806451613&#4482.082&#4463.18064516129033&#4448.73400000000001&#4448.87935483870968, !- Feature Value 23
  EPWDataMonthlyAvgDailyLowDrybulbs,      !- Feature Name 24
  String,                                 !- Feature Data Type 24
  19.347741935483874&#4419.856428571428573&#4430.316129032258065&#4431.112&#4447.41612903225806&#4457.901999999999994&#4459.063870967741934&#4460.956774193548384&#4452.352000000000004&#4438.41612903225806&#4427.002000000000002&#4423.02903225806451, !- Feature Value 24
  EPWDesignHeatingDrybulb,                !- Feature Name 25
  Double,                                 !- Feature Data Type 25
  12.02,                                  !- Feature Value 25
  EPWDesignHeatingWindspeed,              !- Feature Name 26
  Double,                                 !- Feature Data Type 26
  2.8062500000000004,                     !- Feature Value 26
  EPWDesignCoolingDrybulb,                !- Feature Name 27
  Double,                                 !- Feature Data Type 27
  91.939999999999998,                     !- Feature Value 27
  EPWDesignCoolingWetbulb,                !- Feature Name 28
  Double,                                 !- Feature Data Type 28
  59.95131430195849,                      !- Feature Value 28
  EPWDesignCoolingHumidityRatio,          !- Feature Name 29
  Double,                                 !- Feature Data Type 29
  0.0059161086834698092,                  !- Feature Value 29
  EPWDesignCoolingWindspeed,              !- Feature Name 30
  Double,                                 !- Feature Data Type 30
  3.7999999999999989,                     !- Feature Value 30
  EPWDesignDailyTemperatureRange,         !- Feature Name 31
  Double,                                 !- Feature Data Type 31
  24.915483870967748,                     !- Feature Value 31
  EPWDesignDehumidDrybulb,                !- Feature Name 32
  Double,                                 !- Feature Data Type 32
  67.996785714285721,                     !- Feature Value 32
  EPWDesignDehumidHumidityRatio,          !- Feature Name 33
  Double,                                 !- Feature Data Type 33
  0.012133744170488724,                   !- Feature Value 33
  EPWDesignCoolingDirectNormal,           !- Feature Name 34
  Double,                                 !- Feature Data Type 34
  985,                                    !- Feature Value 34
  EPWDesignCoolingDiffuseHorizontal,      !- Feature Name 35
  Double,                                 !- Feature Data Type 35
  84;                                     !- Feature Value 35

OS:Site,
  {85b8eee0-75bc-4680-9710-f57728c74030}, !- Handle
  Denver Intl Ap_CO_USA,                  !- Name
  39.83,                                  !- Latitude {deg}
  -104.65,                                !- Longitude {deg}
  -7,                                     !- Time Zone {hr}
  1650,                                   !- Elevation {m}
  Suburbs;                                !- Terrain

OS:ClimateZones,
  {1a364c8b-5663-4323-bb8a-e6db96f6331e}, !- Handle
  ,                                       !- Active Institution
  ,                                       !- Active Year
  ,                                       !- Climate Zone Institution Name 1
  ,                                       !- Climate Zone Document Name 1
  ,                                       !- Climate Zone Document Year 1
  ,                                       !- Climate Zone Value 1
  Building America,                       !- Climate Zone Institution Name 2
  ,                                       !- Climate Zone Document Name 2
  0,                                      !- Climate Zone Document Year 2
  Cold;                                   !- Climate Zone Value 2

OS:Site:WaterMainsTemperature,
  {fe888507-e30b-406e-a880-3594bc6d86b7}, !- Handle
  Correlation,                            !- Calculation Method
  ,                                       !- Temperature Schedule Name
  10.8753424657535,                       !- Annual Average Outdoor Air Temperature {C}
  23.1524007936508;                       !- Maximum Difference In Monthly Average Outdoor Air Temperatures {deltaC}

OS:RunPeriodControl:DaylightSavingTime,
  {83aa4892-542e-42d5-b5b8-8deb492c01b6}, !- Handle
  4/7,                                    !- Start Date
  10/26;                                  !- End Date

OS:Site:GroundTemperature:Deep,
  {421c74ca-8e0f-456f-9975-6c10a8971ffb}, !- Handle
  10.8753424657535,                       !- January Deep Ground Temperature {C}
  10.8753424657535,                       !- February Deep Ground Temperature {C}
  10.8753424657535,                       !- March Deep Ground Temperature {C}
  10.8753424657535,                       !- April Deep Ground Temperature {C}
  10.8753424657535,                       !- May Deep Ground Temperature {C}
  10.8753424657535,                       !- June Deep Ground Temperature {C}
  10.8753424657535,                       !- July Deep Ground Temperature {C}
  10.8753424657535,                       !- August Deep Ground Temperature {C}
  10.8753424657535,                       !- September Deep Ground Temperature {C}
  10.8753424657535,                       !- October Deep Ground Temperature {C}
  10.8753424657535,                       !- November Deep Ground Temperature {C}
  10.8753424657535;                       !- December Deep Ground Temperature {C}

OS:ThermalZone,
  {02ea390c-464f-4bcb-9a2e-65a2708d5c20}, !- Handle
  living zone,                            !- Name
  ,                                       !- Multiplier
  ,                                       !- Ceiling Height {m}
  ,                                       !- Volume {m3}
  ,                                       !- Floor Area {m2}
  ,                                       !- Zone Inside Convection Algorithm
  ,                                       !- Zone Outside Convection Algorithm
  ,                                       !- Zone Conditioning Equipment List Name
  {0f7176c1-545d-441d-943e-2e0a2b5040a9}, !- Zone Air Inlet Port List
  {89407dcf-c101-41ae-ba03-1c5230ba77f0}, !- Zone Air Exhaust Port List
  {03596f13-2456-4b6e-8173-19817952d4c5}, !- Zone Air Node Name
  {42418ba4-27c8-4f33-91c7-544967fb5ac4}, !- Zone Return Air Port List
  ,                                       !- Primary Daylighting Control Name
  ,                                       !- Fraction of Zone Controlled by Primary Daylighting Control
  ,                                       !- Secondary Daylighting Control Name
  ,                                       !- Fraction of Zone Controlled by Secondary Daylighting Control
  ,                                       !- Illuminance Map Name
  ,                                       !- Group Rendering Name
  ,                                       !- Thermostat Name
  No;                                     !- Use Ideal Air Loads

OS:Node,
  {b709fa73-5116-4484-98d9-18ea4fab8410}, !- Handle
  Node 1,                                 !- Name
  {03596f13-2456-4b6e-8173-19817952d4c5}, !- Inlet Port
  ;                                       !- Outlet Port

OS:Connection,
  {03596f13-2456-4b6e-8173-19817952d4c5}, !- Handle
  {f6a6601c-4b85-4ffa-92b1-84e1c2ae338f}, !- Name
  {02ea390c-464f-4bcb-9a2e-65a2708d5c20}, !- Source Object
  11,                                     !- Outlet Port
  {b709fa73-5116-4484-98d9-18ea4fab8410}, !- Target Object
  2;                                      !- Inlet Port

OS:PortList,
  {0f7176c1-545d-441d-943e-2e0a2b5040a9}, !- Handle
  {ad527f83-d458-40aa-9e61-5c8bdfd32782}, !- Name
  {02ea390c-464f-4bcb-9a2e-65a2708d5c20}, !- HVAC Component
  {1d41073d-9d72-4569-a2e3-c7a66dd79b9b}; !- Port 1

OS:PortList,
  {89407dcf-c101-41ae-ba03-1c5230ba77f0}, !- Handle
  {4622041d-1ebb-4405-830e-c7bc2bc50dc9}, !- Name
  {02ea390c-464f-4bcb-9a2e-65a2708d5c20}, !- HVAC Component
  {679330da-ab81-42e2-a2bb-aaabbb893e32}; !- Port 1

OS:PortList,
  {42418ba4-27c8-4f33-91c7-544967fb5ac4}, !- Handle
  {a3df10ff-d340-4456-b8fa-f8f10e152655}, !- Name
  {02ea390c-464f-4bcb-9a2e-65a2708d5c20}; !- HVAC Component

OS:Sizing:Zone,
  {0808a5ec-9f03-48a6-b2c3-cd63b5d1d4fd}, !- Handle
  {02ea390c-464f-4bcb-9a2e-65a2708d5c20}, !- Zone or ZoneList Name
  SupplyAirTemperature,                   !- Zone Cooling Design Supply Air Temperature Input Method
  14,                                     !- Zone Cooling Design Supply Air Temperature {C}
  11.11,                                  !- Zone Cooling Design Supply Air Temperature Difference {deltaC}
  SupplyAirTemperature,                   !- Zone Heating Design Supply Air Temperature Input Method
  40,                                     !- Zone Heating Design Supply Air Temperature {C}
  11.11,                                  !- Zone Heating Design Supply Air Temperature Difference {deltaC}
  0.0085,                                 !- Zone Cooling Design Supply Air Humidity Ratio {kg-H2O/kg-air}
  0.008,                                  !- Zone Heating Design Supply Air Humidity Ratio {kg-H2O/kg-air}
  ,                                       !- Zone Heating Sizing Factor
  ,                                       !- Zone Cooling Sizing Factor
  DesignDay,                              !- Cooling Design Air Flow Method
  ,                                       !- Cooling Design Air Flow Rate {m3/s}
  ,                                       !- Cooling Minimum Air Flow per Zone Floor Area {m3/s-m2}
  ,                                       !- Cooling Minimum Air Flow {m3/s}
  ,                                       !- Cooling Minimum Air Flow Fraction
  DesignDay,                              !- Heating Design Air Flow Method
  ,                                       !- Heating Design Air Flow Rate {m3/s}
  ,                                       !- Heating Maximum Air Flow per Zone Floor Area {m3/s-m2}
  ,                                       !- Heating Maximum Air Flow {m3/s}
  ,                                       !- Heating Maximum Air Flow Fraction
  ,                                       !- Design Zone Air Distribution Effectiveness in Cooling Mode
  ,                                       !- Design Zone Air Distribution Effectiveness in Heating Mode
  No,                                     !- Account for Dedicated Outdoor Air System
  NeutralSupplyAir,                       !- Dedicated Outdoor Air System Control Strategy
  autosize,                               !- Dedicated Outdoor Air Low Setpoint Temperature for Design {C}
  autosize;                               !- Dedicated Outdoor Air High Setpoint Temperature for Design {C}

OS:ZoneHVAC:EquipmentList,
  {0575bbb4-1c22-4749-916e-1e16b0fe48fa}, !- Handle
  Zone HVAC Equipment List 1,             !- Name
  {02ea390c-464f-4bcb-9a2e-65a2708d5c20}, !- Thermal Zone
  SequentialLoad,                         !- Load Distribution Scheme
  {5dfc8b4d-8dfa-48f5-8ee7-4d42328097cf}, !- Zone Equipment 1
  1,                                      !- Zone Equipment Cooling Sequence 1
  1,                                      !- Zone Equipment Heating or No-Load Sequence 1
  ,                                       !- Zone Equipment Sequential Cooling Fraction Schedule Name 1
  ;                                       !- Zone Equipment Sequential Heating Fraction Schedule Name 1

OS:Space,
  {718862dc-d6fb-4114-ab39-a313b5e9b64f}, !- Handle
  living space,                           !- Name
  {7414a346-2953-4397-963c-85f5ee3a3174}, !- Space Type Name
  ,                                       !- Default Construction Set Name
  ,                                       !- Default Schedule Set Name
  -0,                                     !- Direction of Relative North {deg}
  0,                                      !- X Origin {m}
  0,                                      !- Y Origin {m}
  0,                                      !- Z Origin {m}
  ,                                       !- Building Story Name
  {02ea390c-464f-4bcb-9a2e-65a2708d5c20}, !- Thermal Zone Name
  ,                                       !- Part of Total Floor Area
  ,                                       !- Design Specification Outdoor Air Object Name
  {1500f263-90b3-4e7f-987f-8396c42e4083}; !- Building Unit Name

OS:Surface,
  {447a84d3-33cf-4172-8e44-54b0898a9906}, !- Handle
  Surface 1,                              !- Name
  Floor,                                  !- Surface Type
  {acdffcab-530c-47a9-8287-39d04df53178}, !- Construction Name
  {718862dc-d6fb-4114-ab39-a313b5e9b64f}, !- Space Name
  Foundation,                             !- Outside Boundary Condition
  {c9f571dc-3c55-4fdf-89c1-ca57537461c7}, !- Outside Boundary Condition Object
  NoSun,                                  !- Sun Exposure
  NoWind,                                 !- Wind Exposure
  ,                                       !- View Factor to Ground
  ,                                       !- Number of Vertices
  0, 0, 0,                                !- X,Y,Z Vertex 1 {m}
  0, 10.7471427258245, 0,                 !- X,Y,Z Vertex 2 {m}
  17.2888817744574, 10.7471427258245, 0,  !- X,Y,Z Vertex 3 {m}
  17.2888817744574, 0, 0;                 !- X,Y,Z Vertex 4 {m}

OS:Surface,
  {8a572bf4-9b74-4d50-8c21-79117d942bcf}, !- Handle
  Surface 2,                              !- Name
  Wall,                                   !- Surface Type
  {3911c19e-a885-4d92-a772-8b54bb592aec}, !- Construction Name
  {718862dc-d6fb-4114-ab39-a313b5e9b64f}, !- Space Name
  Outdoors,                               !- Outside Boundary Condition
  ,                                       !- Outside Boundary Condition Object
  SunExposed,                             !- Sun Exposure
  WindExposed,                            !- Wind Exposure
  ,                                       !- View Factor to Ground
  ,                                       !- Number of Vertices
  0, 10.7471427258245, 2.4384,            !- X,Y,Z Vertex 1 {m}
  0, 10.7471427258245, 0,                 !- X,Y,Z Vertex 2 {m}
  0, 0, 0,                                !- X,Y,Z Vertex 3 {m}
  0, 0, 2.4384;                           !- X,Y,Z Vertex 4 {m}

OS:Surface,
  {3e9a9456-8f6e-443e-9673-42b2dd7f13b2}, !- Handle
  Surface 3,                              !- Name
  Wall,                                   !- Surface Type
  {3911c19e-a885-4d92-a772-8b54bb592aec}, !- Construction Name
  {718862dc-d6fb-4114-ab39-a313b5e9b64f}, !- Space Name
  Outdoors,                               !- Outside Boundary Condition
  ,                                       !- Outside Boundary Condition Object
  SunExposed,                             !- Sun Exposure
  WindExposed,                            !- Wind Exposure
  ,                                       !- View Factor to Ground
  ,                                       !- Number of Vertices
  17.2888817744574, 10.7471427258245, 2.4384, !- X,Y,Z Vertex 1 {m}
  17.2888817744574, 10.7471427258245, 0,  !- X,Y,Z Vertex 2 {m}
  0, 10.7471427258245, 0,                 !- X,Y,Z Vertex 3 {m}
  0, 10.7471427258245, 2.4384;            !- X,Y,Z Vertex 4 {m}

OS:Surface,
  {43fd9c88-f726-4939-a2c1-ea8252c77e2a}, !- Handle
  Surface 4,                              !- Name
  Wall,                                   !- Surface Type
  {3911c19e-a885-4d92-a772-8b54bb592aec}, !- Construction Name
  {718862dc-d6fb-4114-ab39-a313b5e9b64f}, !- Space Name
  Outdoors,                               !- Outside Boundary Condition
  ,                                       !- Outside Boundary Condition Object
  SunExposed,                             !- Sun Exposure
  WindExposed,                            !- Wind Exposure
  ,                                       !- View Factor to Ground
  ,                                       !- Number of Vertices
  17.2888817744574, 0, 2.4384,            !- X,Y,Z Vertex 1 {m}
  17.2888817744574, 0, 0,                 !- X,Y,Z Vertex 2 {m}
  17.2888817744574, 10.7471427258245, 0,  !- X,Y,Z Vertex 3 {m}
  17.2888817744574, 10.7471427258245, 2.4384; !- X,Y,Z Vertex 4 {m}

OS:Surface,
  {a38c165c-75f0-4e49-ab57-12360a8e0662}, !- Handle
  Surface 5,                              !- Name
  Wall,                                   !- Surface Type
  {3911c19e-a885-4d92-a772-8b54bb592aec}, !- Construction Name
  {718862dc-d6fb-4114-ab39-a313b5e9b64f}, !- Space Name
  Outdoors,                               !- Outside Boundary Condition
  ,                                       !- Outside Boundary Condition Object
  SunExposed,                             !- Sun Exposure
  WindExposed,                            !- Wind Exposure
  ,                                       !- View Factor to Ground
  ,                                       !- Number of Vertices
  17.2888817744574, 0, 0,                 !- X,Y,Z Vertex 1 {m}
  17.2888817744574, 0, 2.4384,            !- X,Y,Z Vertex 2 {m}
  1.04865714285714, 0, 2.4384,            !- X,Y,Z Vertex 3 {m}
  1.04865714285714, 0, 0;                 !- X,Y,Z Vertex 4 {m}

OS:Surface,
  {bbec50da-66c2-433c-aee5-003f246b7f8f}, !- Handle
  Surface 6,                              !- Name
  RoofCeiling,                            !- Surface Type
  {7ead4ac9-c125-4649-a2d1-35b157adb275}, !- Construction Name
  {718862dc-d6fb-4114-ab39-a313b5e9b64f}, !- Space Name
  Surface,                                !- Outside Boundary Condition
  {eb61bfe1-77d6-48b9-abe0-3b2d8d675007}, !- Outside Boundary Condition Object
  NoSun,                                  !- Sun Exposure
  NoWind,                                 !- Wind Exposure
  ,                                       !- View Factor to Ground
  ,                                       !- Number of Vertices
  17.2888817744574, 0, 2.4384,            !- X,Y,Z Vertex 1 {m}
  17.2888817744574, 10.7471427258245, 2.4384, !- X,Y,Z Vertex 2 {m}
  0, 10.7471427258245, 2.4384,            !- X,Y,Z Vertex 3 {m}
  0, 0, 2.4384;                           !- X,Y,Z Vertex 4 {m}

OS:SpaceType,
  {7414a346-2953-4397-963c-85f5ee3a3174}, !- Handle
  Space Type 1,                           !- Name
  ,                                       !- Default Construction Set Name
  ,                                       !- Default Schedule Set Name
  ,                                       !- Group Rendering Name
  ,                                       !- Design Specification Outdoor Air Object Name
  ,                                       !- Standards Template
  ,                                       !- Standards Building Type
  living;                                 !- Standards Space Type

OS:Surface,
  {eb61bfe1-77d6-48b9-abe0-3b2d8d675007}, !- Handle
  Surface 7,                              !- Name
  Floor,                                  !- Surface Type
  {fcc20a11-fb83-4973-a239-a3d821125c3b}, !- Construction Name
  {e10211dc-4502-47ef-ad35-c07f665a3cc1}, !- Space Name
  Surface,                                !- Outside Boundary Condition
  {bbec50da-66c2-433c-aee5-003f246b7f8f}, !- Outside Boundary Condition Object
  NoSun,                                  !- Sun Exposure
  NoWind,                                 !- Wind Exposure
  ,                                       !- View Factor to Ground
  ,                                       !- Number of Vertices
  0, 10.7471427258245, 0,                 !- X,Y,Z Vertex 1 {m}
  17.2888817744574, 10.7471427258245, 0,  !- X,Y,Z Vertex 2 {m}
  17.2888817744574, 0, 0,                 !- X,Y,Z Vertex 3 {m}
  0, 0, 0;                                !- X,Y,Z Vertex 4 {m}

OS:Surface,
  {713e91be-2a36-4f07-ae30-3816b828b8cf}, !- Handle
  Surface 8,                              !- Name
  RoofCeiling,                            !- Surface Type
  {12169a15-3079-4d37-9f9b-89c65f963886}, !- Construction Name
  {e10211dc-4502-47ef-ad35-c07f665a3cc1}, !- Space Name
  Outdoors,                               !- Outside Boundary Condition
  ,                                       !- Outside Boundary Condition Object
  SunExposed,                             !- Sun Exposure
  WindExposed,                            !- Wind Exposure
  ,                                       !- View Factor to Ground
  ,                                       !- Number of Vertices
  17.2888817744574, 5.37357136291227, 2.68678568145614, !- X,Y,Z Vertex 1 {m}
  0, 5.37357136291227, 2.68678568145614,  !- X,Y,Z Vertex 2 {m}
  0, 0, 0,                                !- X,Y,Z Vertex 3 {m}
  17.2888817744574, 0, 0;                 !- X,Y,Z Vertex 4 {m}

OS:Surface,
  {3112d0b3-9246-42cf-a0f7-60d95b2b632c}, !- Handle
  Surface 9,                              !- Name
  RoofCeiling,                            !- Surface Type
  {12169a15-3079-4d37-9f9b-89c65f963886}, !- Construction Name
  {e10211dc-4502-47ef-ad35-c07f665a3cc1}, !- Space Name
  Outdoors,                               !- Outside Boundary Condition
  ,                                       !- Outside Boundary Condition Object
  SunExposed,                             !- Sun Exposure
  WindExposed,                            !- Wind Exposure
  ,                                       !- View Factor to Ground
  ,                                       !- Number of Vertices
  0, 5.37357136291227, 2.68678568145614,  !- X,Y,Z Vertex 1 {m}
  17.2888817744574, 5.37357136291227, 2.68678568145614, !- X,Y,Z Vertex 2 {m}
  17.2888817744574, 10.7471427258245, 0,  !- X,Y,Z Vertex 3 {m}
  0, 10.7471427258245, 0;                 !- X,Y,Z Vertex 4 {m}

OS:Surface,
  {481aef59-68b4-4a6c-acd6-e8a1fb2f359a}, !- Handle
  Surface 10,                             !- Name