!- NOTE: Auto-generated from /test/osw_files/SFD_2000sqft_2story_SL_FA_LeftRight.osw

OS:Version,
  {4999eb35-c5b9-4e40-8141-492d0ae0313c}, !- Handle
  2.8.1;                                  !- Version Identifier

OS:SimulationControl,
  {d37166f9-5acc-497e-ac12-59d21e87f649}, !- Handle
  ,                                       !- Do Zone Sizing Calculation
  ,                                       !- Do System Sizing Calculation
  ,                                       !- Do Plant Sizing Calculation
  No;                                     !- Run Simulation for Sizing Periods

OS:Timestep,
  {757a431d-4af8-4244-ad8f-ee3b6fd1d146}, !- Handle
  6;                                      !- Number of Timesteps per Hour

OS:ShadowCalculation,
  {67609bb8-9372-4407-bbf3-492f5ac20e77}, !- Handle
  20,                                     !- Calculation Frequency
  200;                                    !- Maximum Figures in Shadow Overlap Calculations

OS:SurfaceConvectionAlgorithm:Outside,
  {a6d84c35-60d1-400c-83bc-2c837a02cebe}, !- Handle
  DOE-2;                                  !- Algorithm

OS:SurfaceConvectionAlgorithm:Inside,
  {67f7d092-6650-41ad-856e-57a33769c311}, !- Handle
  TARP;                                   !- Algorithm

OS:ZoneCapacitanceMultiplier:ResearchSpecial,
  {dade4f3b-aae8-4dad-8618-b1b6c659314c}, !- Handle
  ,                                       !- Temperature Capacity Multiplier
  15,                                     !- Humidity Capacity Multiplier
  ;                                       !- Carbon Dioxide Capacity Multiplier

OS:RunPeriod,
  {80848dfd-8cce-4f84-9dbb-cff467b45096}, !- Handle
  Run Period 1,                           !- Name
  1,                                      !- Begin Month
  1,                                      !- Begin Day of Month
  12,                                     !- End Month
  31,                                     !- End Day of Month
  ,                                       !- Use Weather File Holidays and Special Days
  ,                                       !- Use Weather File Daylight Saving Period
  ,                                       !- Apply Weekend Holiday Rule
  ,                                       !- Use Weather File Rain Indicators
  ,                                       !- Use Weather File Snow Indicators
  ;                                       !- Number of Times Runperiod to be Repeated

OS:ThermalZone,
  {507cf2da-bafe-4e8c-92fa-30bd4aa1c09a}, !- Handle
  living zone,                            !- Name
  ,                                       !- Multiplier
  ,                                       !- Ceiling Height {m}
  ,                                       !- Volume {m3}
  ,                                       !- Floor Area {m2}
  ,                                       !- Zone Inside Convection Algorithm
  ,                                       !- Zone Outside Convection Algorithm
  ,                                       !- Zone Conditioning Equipment List Name
  {72eb86ce-bb2a-497b-8d5c-5ef17c3c11da}, !- Zone Air Inlet Port List
  {4b60e321-0a8f-4017-a29b-f1190f741dc0}, !- Zone Air Exhaust Port List
  {45ca71d9-4e15-4da8-8281-37b9c2968f41}, !- Zone Air Node Name
  {1113bde8-d8c7-44de-84e8-a5cffdac7d8a}, !- Zone Return Air Port List
  ,                                       !- Primary Daylighting Control Name
  ,                                       !- Fraction of Zone Controlled by Primary Daylighting Control
  ,                                       !- Secondary Daylighting Control Name
  ,                                       !- Fraction of Zone Controlled by Secondary Daylighting Control
  ,                                       !- Illuminance Map Name
  ,                                       !- Group Rendering Name
  ,                                       !- Thermostat Name
  No;                                     !- Use Ideal Air Loads

OS:Node,
  {8f1cb9d3-6c38-4d7b-85e7-01212374a01b}, !- Handle
  Node 1,                                 !- Name
  {45ca71d9-4e15-4da8-8281-37b9c2968f41}, !- Inlet Port
  ;                                       !- Outlet Port

OS:Connection,
  {45ca71d9-4e15-4da8-8281-37b9c2968f41}, !- Handle
  {109d6903-b464-4b25-9aaf-1c56a4f9e3c0}, !- Name
  {507cf2da-bafe-4e8c-92fa-30bd4aa1c09a}, !- Source Object
  11,                                     !- Outlet Port
  {8f1cb9d3-6c38-4d7b-85e7-01212374a01b}, !- Target Object
  2;                                      !- Inlet Port

OS:PortList,
  {72eb86ce-bb2a-497b-8d5c-5ef17c3c11da}, !- Handle
  {edf1bac2-c8f5-4999-8084-ed969832121f}, !- Name
  {507cf2da-bafe-4e8c-92fa-30bd4aa1c09a}; !- HVAC Component

OS:PortList,
  {4b60e321-0a8f-4017-a29b-f1190f741dc0}, !- Handle
  {b3069701-32e3-4220-80dd-f3e94d266152}, !- Name
  {507cf2da-bafe-4e8c-92fa-30bd4aa1c09a}; !- HVAC Component

OS:PortList,
  {1113bde8-d8c7-44de-84e8-a5cffdac7d8a}, !- Handle
  {a2d10b68-716c-4e36-8518-1c3d108e8acf}, !- Name
  {507cf2da-bafe-4e8c-92fa-30bd4aa1c09a}; !- HVAC Component

OS:Sizing:Zone,
  {e1399cc4-47eb-4d71-b634-ff128f993d82}, !- Handle
  {507cf2da-bafe-4e8c-92fa-30bd4aa1c09a}, !- Zone or ZoneList Name
  SupplyAirTemperature,                   !- Zone Cooling Design Supply Air Temperature Input Method
  14,                                     !- Zone Cooling Design Supply Air Temperature {C}
  11.11,                                  !- Zone Cooling Design Supply Air Temperature Difference {deltaC}
  SupplyAirTemperature,                   !- Zone Heating Design Supply Air Temperature Input Method
  40,                                     !- Zone Heating Design Supply Air Temperature {C}
  11.11,                                  !- Zone Heating Design Supply Air Temperature Difference {deltaC}
  0.0085,                                 !- Zone Cooling Design Supply Air Humidity Ratio {kg-H2O/kg-air}
  0.008,                                  !- Zone Heating Design Supply Air Humidity Ratio {kg-H2O/kg-air}
  ,                                       !- Zone Heating Sizing Factor
  ,                                       !- Zone Cooling Sizing Factor
  DesignDay,                              !- Cooling Design Air Flow Method
  ,                                       !- Cooling Design Air Flow Rate {m3/s}
  ,                                       !- Cooling Minimum Air Flow per Zone Floor Area {m3/s-m2}
  ,                                       !- Cooling Minimum Air Flow {m3/s}
  ,                                       !- Cooling Minimum Air Flow Fraction
  DesignDay,                              !- Heating Design Air Flow Method
  ,                                       !- Heating Design Air Flow Rate {m3/s}
  ,                                       !- Heating Maximum Air Flow per Zone Floor Area {m3/s-m2}
  ,                                       !- Heating Maximum Air Flow {m3/s}
  ,                                       !- Heating Maximum Air Flow Fraction
  ,                                       !- Design Zone Air Distribution Effectiveness in Cooling Mode
  ,                                       !- Design Zone Air Distribution Effectiveness in Heating Mode
  No,                                     !- Account for Dedicated Outdoor Air System
  NeutralSupplyAir,                       !- Dedicated Outdoor Air System Control Strategy
  autosize,                               !- Dedicated Outdoor Air Low Setpoint Temperature for Design {C}
  autosize;                               !- Dedicated Outdoor Air High Setpoint Temperature for Design {C}

OS:ZoneHVAC:EquipmentList,
  {44493ca0-90b0-4c21-aee2-40a2946656c8}, !- Handle
  Zone HVAC Equipment List 1,             !- Name
  {507cf2da-bafe-4e8c-92fa-30bd4aa1c09a}; !- Thermal Zone

OS:Space,
  {ac548818-92fc-4efd-81ac-f2453f862926}, !- Handle
  living space,                           !- Name
  {476f3155-99fa-4886-abcb-3b464299208e}, !- Space Type Name
  ,                                       !- Default Construction Set Name
  ,                                       !- Default Schedule Set Name
  -0,                                     !- Direction of Relative North {deg}
  0,                                      !- X Origin {m}
  0,                                      !- Y Origin {m}
  0,                                      !- Z Origin {m}
  ,                                       !- Building Story Name
  {507cf2da-bafe-4e8c-92fa-30bd4aa1c09a}, !- Thermal Zone Name
  ,                                       !- Part of Total Floor Area
  ,                                       !- Design Specification Outdoor Air Object Name
  {c51ae170-57f6-46f8-be84-dd158084652b}; !- Building Unit Name

OS:Surface,
  {e4882349-a5a0-48ec-9295-8859ae079835}, !- Handle
  Surface 1,                              !- Name
  Floor,                                  !- Surface Type
  ,                                       !- Construction Name
  {ac548818-92fc-4efd-81ac-f2453f862926}, !- Space Name
  Foundation,                             !- Outside Boundary Condition
  ,                                       !- Outside Boundary Condition Object
  NoSun,                                  !- Sun Exposure
  NoWind,                                 !- Wind Exposure
  ,                                       !- View Factor to Ground
  ,                                       !- Number of Vertices
  0, 0, 0,                                !- X,Y,Z Vertex 1 {m}
  0, 11.129722368505, 0,                  !- X,Y,Z Vertex 2 {m}
  5.56486118425249, 11.129722368505, 0,   !- X,Y,Z Vertex 3 {m}
  5.56486118425249, 0, 0;                 !- X,Y,Z Vertex 4 {m}

OS:Surface,
  {95ddbdde-9cf3-4318-a6db-7e96523665b4}, !- Handle
  Surface 2,                              !- Name
  Wall,                                   !- Surface Type
  ,                                       !- Construction Name
  {ac548818-92fc-4efd-81ac-f2453f862926}, !- Space Name
  Outdoors,                               !- Outside Boundary Condition
  ,                                       !- Outside Boundary Condition Object
  SunExposed,                             !- Sun Exposure
  WindExposed,                            !- Wind Exposure
  ,                                       !- View Factor to Ground
  ,                                       !- Number of Vertices
  0, 11.129722368505, 2.4384,             !- X,Y,Z Vertex 1 {m}
  0, 11.129722368505, 0,                  !- X,Y,Z Vertex 2 {m}
  0, 0, 0,                                !- X,Y,Z Vertex 3 {m}
  0, 0, 2.4384;                           !- X,Y,Z Vertex 4 {m}

OS:Surface,
  {e3154437-c1bb-4e2a-ba1d-05ac2308b8e5}, !- Handle
  Surface 3,                              !- Name
  Wall,                                   !- Surface Type
  ,                                       !- Construction Name
  {ac548818-92fc-4efd-81ac-f2453f862926}, !- Space Name
  Outdoors,                               !- Outside Boundary Condition
  ,                                       !- Outside Boundary Condition Object
  SunExposed,                             !- Sun Exposure
  WindExposed,                            !- Wind Exposure
  ,                                       !- View Factor to Ground
  ,                                       !- Number of Vertices
  5.56486118425249, 11.129722368505, 2.4384, !- X,Y,Z Vertex 1 {m}
  5.56486118425249, 11.129722368505, 0,   !- X,Y,Z Vertex 2 {m}
  0, 11.129722368505, 0,                  !- X,Y,Z Vertex 3 {m}
  0, 11.129722368505, 2.4384;             !- X,Y,Z Vertex 4 {m}

OS:Surface,
  {fd58e7de-ec4f-42c5-9e12-c68f18554091}, !- Handle
  Surface 4,                              !- Name
  Wall,                                   !- Surface Type
  ,                                       !- Construction Name
  {ac548818-92fc-4efd-81ac-f2453f862926}, !- Space Name
  Outdoors,                               !- Outside Boundary Condition
  ,                                       !- Outside Boundary Condition Object
  SunExposed,                             !- Sun Exposure
  WindExposed,                            !- Wind Exposure
  ,                                       !- View Factor to Ground
  ,                                       !- Number of Vertices
  5.56486118425249, 0, 2.4384,            !- X,Y,Z Vertex 1 {m}
  5.56486118425249, 0, 0,                 !- X,Y,Z Vertex 2 {m}
  5.56486118425249, 11.129722368505, 0,   !- X,Y,Z Vertex 3 {m}
  5.56486118425249, 11.129722368505, 2.4384; !- X,Y,Z Vertex 4 {m}

OS:Surface,
  {d745977f-61f9-4968-9768-53336a35451c}, !- Handle
  Surface 5,                              !- Name
  Wall,                                   !- Surface Type
  ,                                       !- Construction Name
  {ac548818-92fc-4efd-81ac-f2453f862926}, !- Space Name
  Outdoors,                               !- Outside Boundary Condition
  ,                                       !- Outside Boundary Condition Object
  SunExposed,                             !- Sun Exposure
  WindExposed,                            !- Wind Exposure
  ,                                       !- View Factor to Ground
  ,                                       !- Number of Vertices
  0, 0, 2.4384,                           !- X,Y,Z Vertex 1 {m}
  0, 0, 0,                                !- X,Y,Z Vertex 2 {m}
  5.56486118425249, 0, 0,                 !- X,Y,Z Vertex 3 {m}
  5.56486118425249, 0, 2.4384;            !- X,Y,Z Vertex 4 {m}

OS:Surface,
  {004f754e-2f64-41bb-8a03-7d8fc1cbf6d6}, !- Handle
  Surface 6,                              !- Name
  RoofCeiling,                            !- Surface Type
  ,                                       !- Construction Name
  {ac548818-92fc-4efd-81ac-f2453f862926}, !- Space Name
  Surface,                                !- Outside Boundary Condition
  {964994a4-cac9-4fd0-9740-76ac31299974}, !- Outside Boundary Condition Object
  NoSun,                                  !- Sun Exposure
  NoWind,                                 !- Wind Exposure
  ,                                       !- View Factor to Ground
  ,                                       !- Number of Vertices
  5.56486118425249, 0, 2.4384,            !- X,Y,Z Vertex 1 {m}
  5.56486118425249, 11.129722368505, 2.4384, !- X,Y,Z Vertex 2 {m}
  0, 11.129722368505, 2.4384,             !- X,Y,Z Vertex 3 {m}
  0, 0, 2.4384;                           !- X,Y,Z Vertex 4 {m}

OS:SpaceType,
  {476f3155-99fa-4886-abcb-3b464299208e}, !- Handle
  Space Type 1,                           !- Name
  ,                                       !- Default Construction Set Name
  ,                                       !- Default Schedule Set Name
  ,                                       !- Group Rendering Name
  ,                                       !- Design Specification Outdoor Air Object Name
  ,                                       !- Standards Template
  ,                                       !- Standards Building Type
  living;                                 !- Standards Space Type

OS:Space,
  {c18fe29d-3608-41e6-81bf-24eb64bd7b32}, !- Handle
  living space|story 2,                   !- Name
  {476f3155-99fa-4886-abcb-3b464299208e}, !- Space Type Name
  ,                                       !- Default Construction Set Name
  ,                                       !- Default Schedule Set Name
  -0,                                     !- Direction of Relative North {deg}
  0,                                      !- X Origin {m}
  0,                                      !- Y Origin {m}
  2.4384,                                 !- Z Origin {m}
  ,                                       !- Building Story Name
  {507cf2da-bafe-4e8c-92fa-30bd4aa1c09a}, !- Thermal Zone Name
  ,                                       !- Part of Total Floor Area
  ,                                       !- Design Specification Outdoor Air Object Name
  {c51ae170-57f6-46f8-be84-dd158084652b}; !- Building Unit Name

OS:Surface,
  {964994a4-cac9-4fd0-9740-76ac31299974}, !- Handle
  Surface 7,                              !- Name
  Floor,                                  !- Surface Type
  ,                                       !- Construction Name
  {c18fe29d-3608-41e6-81bf-24eb64bd7b32}, !- Space Name
  Surface,                                !- Outside Boundary Condition
  {004f754e-2f64-41bb-8a03-7d8fc1cbf6d6}, !- Outside Boundary Condition Object
  NoSun,                                  !- Sun Exposure
  NoWind,                                 !- Wind Exposure
  ,                                       !- View Factor to Ground
  ,                                       !- Number of Vertices
  0, 0, 0,                                !- X,Y,Z Vertex 1 {m}
  0, 11.129722368505, 0,                  !- X,Y,Z Vertex 2 {m}
  5.56486118425249, 11.129722368505, 0,   !- X,Y,Z Vertex 3 {m}
  5.56486118425249, 0, 0;                 !- X,Y,Z Vertex 4 {m}

OS:Surface,
  {48645bb1-68f7-4e1e-88ff-dde279f4815c}, !- Handle
  Surface 8,                              !- Name
  Wall,                                   !- Surface Type
  ,                                       !- Construction Name
  {c18fe29d-3608-41e6-81bf-24eb64bd7b32}, !- Space Name
  Outdoors,                               !- Outside Boundary Condition
  ,                                       !- Outside Boundary Condition Object
  SunExposed,                             !- Sun Exposure
  WindExposed,                            !- Wind Exposure
  ,                                       !- View Factor to Ground
  ,                                       !- Number of Vertices
  0, 11.129722368505, 2.4384,             !- X,Y,Z Vertex 1 {m}
  0, 11.129722368505, 0,                  !- X,Y,Z Vertex 2 {m}
  0, 0, 0,                                !- X,Y,Z Vertex 3 {m}
  0, 0, 2.4384;                           !- X,Y,Z Vertex 4 {m}

OS:Surface,
  {97d05695-7126-4fb7-b16a-912b7a79373b}, !- Handle
  Surface 9,                              !- Name
  Wall,                                   !- Surface Type
  ,                                       !- Construction Name
  {c18fe29d-3608-41e6-81bf-24eb64bd7b32}, !- Space Name
  Outdoors,                               !- Outside Boundary Condition
  ,                                       !- Outside Boundary Condition Object
  SunExposed,                             !- Sun Exposure
  WindExposed,                            !- Wind Exposure
  ,                                       !- View Factor to Ground
  ,                                       !- Number of Vertices
  5.56486118425249, 11.129722368505, 2.4384, !- X,Y,Z Vertex 1 {m}
  5.56486118425249, 11.129722368505, 0,   !- X,Y,Z Vertex 2 {m}
  0, 11.129722368505, 0,                  !- X,Y,Z Vertex 3 {m}
  0, 11.129722368505, 2.4384;             !- X,Y,Z Vertex 4 {m}

OS:Surface,
  {729af692-17e1-4e43-9d98-aebd46f9da56}, !- Handle
  Surface 10,                             !- Name
  Wall,                                   !- Surface Type
  ,                                       !- Construction Name
  {c18fe29d-3608-41e6-81bf-24eb64bd7b32}, !- Space Name
  Outdoors,                               !- Outside Boundary Condition
  ,                                       !- Outside Boundary Condition Object
  SunExposed,                             !- Sun Exposure
  WindExposed,                            !- Wind Exposure
  ,                                       !- View Factor to Ground
  ,                                       !- Number of Vertices
  5.56486118425249, 0, 2.4384,            !- X,Y,Z Vertex 1 {m}
  5.56486118425249, 0, 0,                 !- X,Y,Z Vertex 2 {m}
  5.56486118425249, 11.129722368505, 0,   !- X,Y,Z Vertex 3 {m}
  5.56486118425249, 11.129722368505, 2.4384; !- X,Y,Z Vertex 4 {m}

OS:Surface,
  {8a4bda11-0c30-4c61-95c7-86bc320bd540}, !- Handle
  Surface 11,                             !- Name
  Wall,                                   !- Surface Type
  ,                                       !- Construction Name
  {c18fe29d-3608-41e6-81bf-24eb64bd7b32}, !- Space Name
  Outdoors,                               !- Outside Boundary Condition
  ,                                       !- Outside Boundary Condition Object
  SunExposed,                             !- Sun Exposure
  WindExposed,                            !- Wind Exposure
  ,                                       !- View Factor to Ground
  ,                                       !- Number of Vertices
  0, 0, 2.4384,                           !- X,Y,Z Vertex 1 {m}
  0, 0, 0,                                !- X,Y,Z Vertex 2 {m}
  5.56486118425249, 0, 0,                 !- X,Y,Z Vertex 3 {m}
  5.56486118425249, 0, 2.4384;            !- X,Y,Z Vertex 4 {m}

OS:Surface,
  {c7691d24-08de-41d8-b111-738f688463f0}, !- Handle
  Surface 12,                             !- Name
  RoofCeiling,                            !- Surface Type
  ,                                       !- Construction Name
  {c18fe29d-3608-41e6-81bf-24eb64bd7b32}, !- Space Name
  Surface,                                !- Outside Boundary Condition
  {a37dae9d-58a6-4e85-a88c-c396d057ca22}, !- Outside Boundary Condition Object
  NoSun,                                  !- Sun Exposure
  NoWind,                                 !- Wind Exposure
  ,                                       !- View Factor to Ground
  ,                                       !- Number of Vertices
  5.56486118425249, 0, 2.4384,            !- X,Y,Z Vertex 1 {m}
  5.56486118425249, 11.129722368505, 2.4384, !- X,Y,Z Vertex 2 {m}
  0, 11.129722368505, 2.4384,             !- X,Y,Z Vertex 3 {m}
  0, 0, 2.4384;                           !- X,Y,Z Vertex 4 {m}

OS:Surface,
  {a37dae9d-58a6-4e85-a88c-c396d057ca22}, !- Handle
  Surface 13,                             !- Name
  Floor,                                  !- Surface Type
  ,                                       !- Construction Name
  {478faf3b-b3ac-4dfa-90fc-8211b23e98f3}, !- Space Name
  Surface,                                !- Outside Boundary Condition
  {c7691d24-08de-41d8-b111-738f688463f0}, !- Outside Boundary Condition Object
  NoSun,                                  !- Sun Exposure
  NoWind,                                 !- Wind Exposure
  ,                                       !- View Factor to Ground
  ,                                       !- Number of Vertices
  0, 11.129722368505, 0,                  !- X,Y,Z Vertex 1 {m}
  5.56486118425249, 11.129722368505, 0,   !- X,Y,Z Vertex 2 {m}
  5.56486118425249, 0, 0,                 !- X,Y,Z Vertex 3 {m}
  0, 0, 0;                                !- X,Y,Z Vertex 4 {m}

OS:Surface,
  {73714dab-8a4a-4a3c-a3a6-c0b57d291180}, !- Handle
  Surface 14,                             !- Name
  RoofCeiling,                            !- Surface Type
  ,                                       !- Construction Name
  {478faf3b-b3ac-4dfa-90fc-8211b23e98f3}, !- Space Name
  Outdoors,                               !- Outside Boundary Condition
  ,                                       !- Outside Boundary Condition Object
  SunExposed,                             !- Sun Exposure
  WindExposed,                            !- Wind Exposure
  ,                                       !- View Factor to Ground
  ,                                       !- Number of Vertices
  2.78243059212624, 11.129722368505, 1.69601529606312, !- X,Y,Z Vertex 1 {m}
  2.78243059212624, 0, 1.69601529606312,  !- X,Y,Z Vertex 2 {m}
  5.56486118425249, 0, 0.304799999999999, !- X,Y,Z Vertex 3 {m}
  5.56486118425249, 11.129722368505, 0.304799999999999; !- X,Y,Z Vertex 4 {m}

OS:Surface,
  {25bfcbdf-bd23-4cd2-9945-1110e8288279}, !- Handle
  Surface 15,                             !- Name
  RoofCeiling,                            !- Surface Type
  ,                                       !- Construction Name
  {478faf3b-b3ac-4dfa-90fc-8211b23e98f3}, !- Space Name
  Outdoors,                               !- Outside Boundary Condition
  ,                                       !- Outside Boundary Condition Object
  SunExposed,                             !- Sun Exposure
  WindExposed,                            !- Wind Exposure
  ,                                       !- View Factor to Ground
  ,                                       !- Number of Vertices
  2.78243059212624, 0, 1.69601529606312,  !- X,Y,Z Vertex 1 {m}
  2.78243059212624, 11.129722368505, 1.69601529606312, !- X,Y,Z Vertex 2 {m}
  0, 11.129722368505, 0.3048,             !- X,Y,Z Vertex 3 {m}
  0, 0, 0.3048;                           !- X,Y,Z Vertex 4 {m}

OS:Surface,
  {74fe64c8-da1a-4694-8dfd-2b68e7e08b0e}, !- Handle
  Surface 16,                             !- Name
  Wall,                                   !- Surface Type
  ,                                       !- Construction Name
  {478faf3b-b3ac-4dfa-90fc-8211b23e98f3}, !- Space Name
  Outdoors,                               !- Outside Boundary Condition
  ,                                       !- Outside Boundary Condition Object
  SunExposed,                             !- Sun Exposure
  WindExposed,                            !- Wind Exposure
  ,                                       !- View Factor to Ground
  ,                                       !- Number of Vertices
  2.78243059212624, 0, 1.39121529606312,  !- X,Y,Z Vertex 1 {m}
  0, 0, 0,                                !- X,Y,Z Vertex 2 {m}
  5.56486118425249, 0, 0;                 !- X,Y,Z Vertex 3 {m}

OS:Surface,
  {7d72262a-174c-4a97-b1d0-6665b198e81e}, !- Handle
  Surface 17,                             !- Name
  Wall,                                   !- Surface Type
  ,                                       !- Construction Name
  {478faf3b-b3ac-4dfa-90fc-8211b23e98f3}, !- Space Name
  Outdoors,                               !- Outside Boundary Condition
  ,                                       !- Outside Boundary Condition Object
  SunExposed,                             !- Sun Exposure
  WindExposed,                            !- Wind Exposure
  ,                                       !- View Factor to Ground
  ,                                       !- Number of Vertices
  2.78243059212624, 11.129722368505, 1.39121529606312, !- X,Y,Z Vertex 1 {m}
  5.56486118425249, 11.129722368505, 0,   !- X,Y,Z Vertex 2 {m}
  0, 11.129722368505, 0;                  !- X,Y,Z Vertex 3 {m}

OS:Space,
  {478faf3b-b3ac-4dfa-90fc-8211b23e98f3}, !- Handle
  finished attic space,                   !- Name
  {476f3155-99fa-4886-abcb-3b464299208e}, !- Space Type Name
  ,                                       !- Default Construction Set Name
  ,                                       !- Default Schedule Set Name
  -0,                                     !- Direction of Relative North {deg}
  0,                                      !- X Origin {m}
  0,                                      !- Y Origin {m}
  4.8768,                                 !- Z Origin {m}
  ,                                       !- Building Story Name
  {507cf2da-bafe-4e8c-92fa-30bd4aa1c09a}, !- Thermal Zone Name
  ,                                       !- Part of Total Floor Area
  ,                                       !- Design Specification Outdoor Air Object Name
  {c51ae170-57f6-46f8-be84-dd158084652b}; !- Building Unit Name

OS:BuildingUnit,
  {c51ae170-57f6-46f8-be84-dd158084652b}, !- Handle
  unit 1,                                 !- Name
  ,                                       !- Rendering Color
  Residential;                            !- Building Unit Type

OS:Building,
  {e661aaca-4058-40dd-908d-43017a2e51b2}, !- Handle
  Building 1,                             !- Name
  ,                                       !- Building Sector Type
  0,                                      !- North Axis {deg}
  ,                                       !- Nominal Floor to Floor Height {m}
  ,                                       !- Space Type Name
  ,                                       !- Default Construction Set Name
  ,                                       !- Default Schedule Set Name
  3,                                      !- Standards Number of Stories
  3,                                      !- Standards Number of Above Ground Stories
  ,                                       !- Standards Template
  singlefamilydetached,                   !- Standards Building Type
  1;                                      !- Standards Number of Living Units

OS:AdditionalProperties,
  {eb2b91c6-46eb-4cb6-a50f-a2ac0f63f1be}, !- Handle
  {e661aaca-4058-40dd-908d-43017a2e51b2}, !- Object Name
  Total Units Represented,                !- Feature Name 1
  Integer,                                !- Feature Data Type 1
  1,                                      !- Feature Value 1
  Total Units Modeled,                    !- Feature Name 2
  Integer,                                !- Feature Data Type 2
  1;                                      !- Feature Value 2

OS:AdditionalProperties,
  {701f67f6-ddc6-4b12-9ef6-11a5f827ac6e}, !- Handle
  {c51ae170-57f6-46f8-be84-dd158084652b}, !- Object Name
  NumberOfBedrooms,                       !- Feature Name 1
  Integer,                                !- Feature Data Type 1
  3,                                      !- Feature Value 1
  NumberOfBathrooms,                      !- Feature Name 2
  Double,                                 !- Feature Data Type 2
  2;                                      !- Feature Value 2

OS:Schedule:Day,
  {1b4bd5a2-37ce-4b10-be7e-0fdd1c3540f6}, !- Handle
  Schedule Day 1,                         !- Name
  ,                                       !- Schedule Type Limits Name
  ,                                       !- Interpolate to Timestep
  24,                                     !- Hour 1
  0,                                      !- Minute 1
  0;                                      !- Value Until Time 1

OS:Schedule:Day,
  {79a17745-9c59-4aae-8ab1-87435b6ddff4}, !- Handle
  Schedule Day 2,                         !- Name
  ,                                       !- Schedule Type Limits Name