!- NOTE: Auto-generated from /test/osw_files/SFD_2000sqft_2story_FB_UA_Denver_UnitHeater_RoomAC.osw

OS:Version,
  {58771d0b-bf7a-4ecb-b6cf-1a55fdee4ce0}, !- Handle
  3.0.0;                                  !- Version Identifier

OS:SimulationControl,
  {380536a2-fab0-4f43-a241-4984c5f152da}, !- Handle
  ,                                       !- Do Zone Sizing Calculation
  ,                                       !- Do System Sizing Calculation
  ,                                       !- Do Plant Sizing Calculation
  No;                                     !- Run Simulation for Sizing Periods

OS:Timestep,
  {6532d290-07e4-461e-b365-94a7acf69bec}, !- Handle
  6;                                      !- Number of Timesteps per Hour

OS:ShadowCalculation,
  {4e444951-5053-4fce-b1c4-793f15aebb29}, !- Handle
  PolygonClipping,                        !- Shading Calculation Method
  ,                                       !- Shading Calculation Update Frequency Method
  20,                                     !- Shading Calculation Update Frequency
  200,                                    !- Maximum Figures in Shadow Overlap Calculations
  ,                                       !- Polygon Clipping Algorithm
  512,                                    !- Pixel Counting Resolution
  ,                                       !- Sky Diffuse Modeling Algorithm
  No,                                     !- Output External Shading Calculation Results
  No,                                     !- Disable Self-Shading Within Shading Zone Groups
  No;                                     !- Disable Self-Shading From Shading Zone Groups to Other Zones

OS:SurfaceConvectionAlgorithm:Outside,
  {4ce9ac11-2bec-4e13-b6dd-6e9465f07b63}, !- Handle
  DOE-2;                                  !- Algorithm

OS:SurfaceConvectionAlgorithm:Inside,
  {9c1ba990-79f6-466b-90d6-23987057d3a3}, !- Handle
  TARP;                                   !- Algorithm

OS:ZoneCapacitanceMultiplier:ResearchSpecial,
  {1a73692c-d4de-4354-b98e-7db843249e7a}, !- Handle
  ,                                       !- Temperature Capacity Multiplier
  15,                                     !- Humidity Capacity Multiplier
  ;                                       !- Carbon Dioxide Capacity Multiplier

OS:RunPeriod,
  {c886ae04-e313-4c5e-993c-1adaad2904a6}, !- Handle
  Run Period 1,                           !- Name
  1,                                      !- Begin Month
  1,                                      !- Begin Day of Month
  12,                                     !- End Month
  31,                                     !- End Day of Month
  ,                                       !- Use Weather File Holidays and Special Days
  ,                                       !- Use Weather File Daylight Saving Period
  ,                                       !- Apply Weekend Holiday Rule
  ,                                       !- Use Weather File Rain Indicators
  ,                                       !- Use Weather File Snow Indicators
  ;                                       !- Number of Times Runperiod to be Repeated

OS:YearDescription,
  {2b4ed3a8-e700-4b7b-a837-350028556d8e}, !- Handle
  2007,                                   !- Calendar Year
  ,                                       !- Day of Week for Start Day
  ;                                       !- Is Leap Year

OS:ThermalZone,
  {b92af376-998e-440f-aae7-6d901cfd60ee}, !- Handle
  living zone,                            !- Name
  ,                                       !- Multiplier
  ,                                       !- Ceiling Height {m}
  ,                                       !- Volume {m3}
  ,                                       !- Floor Area {m2}
  ,                                       !- Zone Inside Convection Algorithm
  ,                                       !- Zone Outside Convection Algorithm
  ,                                       !- Zone Conditioning Equipment List Name
  {969c1069-5d3e-434f-891b-e44d85d04780}, !- Zone Air Inlet Port List
  {b689a866-8dc9-444c-b8d8-249782020976}, !- Zone Air Exhaust Port List
  {4217686d-a757-4e81-80ca-6cc5a05ce632}, !- Zone Air Node Name
  {ccafbfb2-5018-49cc-8e19-d28456ec41a7}, !- Zone Return Air Port List
  ,                                       !- Primary Daylighting Control Name
  ,                                       !- Fraction of Zone Controlled by Primary Daylighting Control
  ,                                       !- Secondary Daylighting Control Name
  ,                                       !- Fraction of Zone Controlled by Secondary Daylighting Control
  ,                                       !- Illuminance Map Name
  ,                                       !- Group Rendering Name
  {ac668ccb-b5fb-4f6f-b4ed-6cc0e7595e87}, !- Thermostat Name
  No;                                     !- Use Ideal Air Loads

OS:Node,
  {ea4028fb-deac-4322-9d05-13d1faac0cd1}, !- Handle
  Node 1,                                 !- Name
  {4217686d-a757-4e81-80ca-6cc5a05ce632}, !- Inlet Port
  ;                                       !- Outlet Port

OS:Connection,
  {4217686d-a757-4e81-80ca-6cc5a05ce632}, !- Handle
  {fc5270bd-fd29-4d7c-b000-dba80d3f4dbd}, !- Name
  {b92af376-998e-440f-aae7-6d901cfd60ee}, !- Source Object
  11,                                     !- Outlet Port
  {ea4028fb-deac-4322-9d05-13d1faac0cd1}, !- Target Object
  2;                                      !- Inlet Port

OS:PortList,
  {969c1069-5d3e-434f-891b-e44d85d04780}, !- Handle
  {ab707481-b2a1-4315-b792-09c7f01c1916}, !- Name
  {b92af376-998e-440f-aae7-6d901cfd60ee}, !- HVAC Component
  {2df7c79f-183b-423c-ba0f-70c66afb2896}, !- Port 1
  {fd623614-7183-4eb3-8385-d715b3588b1d}; !- Port 2

OS:PortList,
  {b689a866-8dc9-444c-b8d8-249782020976}, !- Handle
  {ab74f41b-8664-400f-b908-cb3c8b009ed1}, !- Name
  {b92af376-998e-440f-aae7-6d901cfd60ee}, !- HVAC Component
  {1df1ff40-9783-40bc-8ae8-b99b36de0af1}, !- Port 1
  {61b83c79-de60-4768-b643-07d6b4b36a0c}; !- Port 2

OS:PortList,
  {ccafbfb2-5018-49cc-8e19-d28456ec41a7}, !- Handle
  {b30648ff-84cc-4aa0-bc06-61bad31055d4}, !- Name
  {b92af376-998e-440f-aae7-6d901cfd60ee}; !- HVAC Component

OS:Sizing:Zone,
  {dd2efd58-00f7-4073-98a3-afc4a6db51b1}, !- Handle
  {b92af376-998e-440f-aae7-6d901cfd60ee}, !- Zone or ZoneList Name
  SupplyAirTemperature,                   !- Zone Cooling Design Supply Air Temperature Input Method
  14,                                     !- Zone Cooling Design Supply Air Temperature {C}
  11.11,                                  !- Zone Cooling Design Supply Air Temperature Difference {deltaC}
  SupplyAirTemperature,                   !- Zone Heating Design Supply Air Temperature Input Method
  40,                                     !- Zone Heating Design Supply Air Temperature {C}
  11.11,                                  !- Zone Heating Design Supply Air Temperature Difference {deltaC}
  0.0085,                                 !- Zone Cooling Design Supply Air Humidity Ratio {kg-H2O/kg-air}
  0.008,                                  !- Zone Heating Design Supply Air Humidity Ratio {kg-H2O/kg-air}
  ,                                       !- Zone Heating Sizing Factor
  ,                                       !- Zone Cooling Sizing Factor
  DesignDay,                              !- Cooling Design Air Flow Method
  ,                                       !- Cooling Design Air Flow Rate {m3/s}
  ,                                       !- Cooling Minimum Air Flow per Zone Floor Area {m3/s-m2}
  ,                                       !- Cooling Minimum Air Flow {m3/s}
  ,                                       !- Cooling Minimum Air Flow Fraction
  DesignDay,                              !- Heating Design Air Flow Method
  ,                                       !- Heating Design Air Flow Rate {m3/s}
  ,                                       !- Heating Maximum Air Flow per Zone Floor Area {m3/s-m2}
  ,                                       !- Heating Maximum Air Flow {m3/s}
  ,                                       !- Heating Maximum Air Flow Fraction
  No,                                     !- Account for Dedicated Outdoor Air System
  NeutralSupplyAir,                       !- Dedicated Outdoor Air System Control Strategy
  autosize,                               !- Dedicated Outdoor Air Low Setpoint Temperature for Design {C}
  autosize;                               !- Dedicated Outdoor Air High Setpoint Temperature for Design {C}

OS:ZoneHVAC:EquipmentList,
  {4b9be965-79a5-4581-a7b4-5d892cdcec30}, !- Handle
  Zone HVAC Equipment List 1,             !- Name
  {b92af376-998e-440f-aae7-6d901cfd60ee}, !- Thermal Zone
  SequentialLoad,                         !- Load Distribution Scheme
  {08b27c3a-f384-437c-a94e-eaa94189c0c8}, !- Zone Equipment 1
  1,                                      !- Zone Equipment Cooling Sequence 1
  1,                                      !- Zone Equipment Heating or No-Load Sequence 1
  ,                                       !- Zone Equipment Sequential Cooling Fraction Schedule Name 1
  ,                                       !- Zone Equipment Sequential Heating Fraction Schedule Name 1
  {e7f513e9-e0d7-410f-835c-fe8b8b932513}, !- Zone Equipment 2
  2,                                      !- Zone Equipment Cooling Sequence 2
  2,                                      !- Zone Equipment Heating or No-Load Sequence 2
  ,                                       !- Zone Equipment Sequential Cooling Fraction Schedule Name 2
  ;                                       !- Zone Equipment Sequential Heating Fraction Schedule Name 2

OS:ThermalZone,
  {a302202e-562b-4f22-9af8-e124d699e51e}, !- Handle
  garage zone,                            !- Name
  ,                                       !- Multiplier
  ,                                       !- Ceiling Height {m}
  ,                                       !- Volume {m3}
  ,                                       !- Floor Area {m2}
  ,                                       !- Zone Inside Convection Algorithm
  ,                                       !- Zone Outside Convection Algorithm
  ,                                       !- Zone Conditioning Equipment List Name
  {8d0b9110-6954-4acd-b555-9c88f74a8ca3}, !- Zone Air Inlet Port List
  {84bed238-8ad6-4078-a582-69a2f1afc971}, !- Zone Air Exhaust Port List
  {26886c70-d26c-4eb5-8a46-8b58310ce642}, !- Zone Air Node Name
  {448d3694-e459-4a3c-9406-c6297117424f}, !- Zone Return Air Port List
  ,                                       !- Primary Daylighting Control Name
  ,                                       !- Fraction of Zone Controlled by Primary Daylighting Control
  ,                                       !- Secondary Daylighting Control Name
  ,                                       !- Fraction of Zone Controlled by Secondary Daylighting Control
  ,                                       !- Illuminance Map Name
  ,                                       !- Group Rendering Name
  ,                                       !- Thermostat Name
  No;                                     !- Use Ideal Air Loads

OS:Node,
  {eeb6f1df-d16f-4067-bbb5-786c1cb68977}, !- Handle
  Node 2,                                 !- Name
  {26886c70-d26c-4eb5-8a46-8b58310ce642}, !- Inlet Port
  ;                                       !- Outlet Port

OS:Connection,
  {26886c70-d26c-4eb5-8a46-8b58310ce642}, !- Handle
  {f3094105-09b8-4058-9532-8763572da64e}, !- Name
  {a302202e-562b-4f22-9af8-e124d699e51e}, !- Source Object
  11,                                     !- Outlet Port
  {eeb6f1df-d16f-4067-bbb5-786c1cb68977}, !- Target Object
  2;                                      !- Inlet Port

OS:PortList,
  {8d0b9110-6954-4acd-b555-9c88f74a8ca3}, !- Handle
  {b1dd4b57-9a93-422e-b811-0a1188caba98}, !- Name
  {a302202e-562b-4f22-9af8-e124d699e51e}; !- HVAC Component

OS:PortList,
  {84bed238-8ad6-4078-a582-69a2f1afc971}, !- Handle
  {a49214bd-2771-4a97-8d42-9243b2790a26}, !- Name
  {a302202e-562b-4f22-9af8-e124d699e51e}; !- HVAC Component

OS:PortList,
  {448d3694-e459-4a3c-9406-c6297117424f}, !- Handle
  {17fafead-34e6-4b1d-b6dc-6e66ceb808f9}, !- Name
  {a302202e-562b-4f22-9af8-e124d699e51e}; !- HVAC Component

OS:Sizing:Zone,
  {d5aa6d61-9ac5-4437-aa4d-be5d675bea14}, !- Handle
  {a302202e-562b-4f22-9af8-e124d699e51e}, !- Zone or ZoneList Name
  SupplyAirTemperature,                   !- Zone Cooling Design Supply Air Temperature Input Method
  14,                                     !- Zone Cooling Design Supply Air Temperature {C}
  11.11,                                  !- Zone Cooling Design Supply Air Temperature Difference {deltaC}
  SupplyAirTemperature,                   !- Zone Heating Design Supply Air Temperature Input Method
  40,                                     !- Zone Heating Design Supply Air Temperature {C}
  11.11,                                  !- Zone Heating Design Supply Air Temperature Difference {deltaC}
  0.0085,                                 !- Zone Cooling Design Supply Air Humidity Ratio {kg-H2O/kg-air}
  0.008,                                  !- Zone Heating Design Supply Air Humidity Ratio {kg-H2O/kg-air}
  ,                                       !- Zone Heating Sizing Factor
  ,                                       !- Zone Cooling Sizing Factor
  DesignDay,                              !- Cooling Design Air Flow Method
  ,                                       !- Cooling Design Air Flow Rate {m3/s}
  ,                                       !- Cooling Minimum Air Flow per Zone Floor Area {m3/s-m2}
  ,                                       !- Cooling Minimum Air Flow {m3/s}
  ,                                       !- Cooling Minimum Air Flow Fraction
  DesignDay,                              !- Heating Design Air Flow Method
  ,                                       !- Heating Design Air Flow Rate {m3/s}
  ,                                       !- Heating Maximum Air Flow per Zone Floor Area {m3/s-m2}
  ,                                       !- Heating Maximum Air Flow {m3/s}
  ,                                       !- Heating Maximum Air Flow Fraction
  No,                                     !- Account for Dedicated Outdoor Air System
  NeutralSupplyAir,                       !- Dedicated Outdoor Air System Control Strategy
  autosize,                               !- Dedicated Outdoor Air Low Setpoint Temperature for Design {C}
  autosize;                               !- Dedicated Outdoor Air High Setpoint Temperature for Design {C}

OS:ZoneHVAC:EquipmentList,
  {a80fa7a9-5cbd-40e9-af5e-f3de984157f0}, !- Handle
  Zone HVAC Equipment List 2,             !- Name
  {a302202e-562b-4f22-9af8-e124d699e51e}; !- Thermal Zone

OS:Space,
  {3d18c397-f4ea-4680-8ab9-72a79c948fb0}, !- Handle
  garage space,                           !- Name
  {7abee247-a7f2-4879-a599-9a05f4dde415}, !- Space Type Name
  ,                                       !- Default Construction Set Name
  ,                                       !- Default Schedule Set Name
  -0,                                     !- Direction of Relative North {deg}
  0,                                      !- X Origin {m}
  0,                                      !- Y Origin {m}
  0,                                      !- Z Origin {m}
  ,                                       !- Building Story Name
  {a302202e-562b-4f22-9af8-e124d699e51e}; !- Thermal Zone Name

OS:Surface,
  {8dca7c41-e7e1-408e-bab2-7f0252a59b0d}, !- Handle
  Surface 1,                              !- Name
  Floor,                                  !- Surface Type
  ,                                       !- Construction Name
  {3d18c397-f4ea-4680-8ab9-72a79c948fb0}, !- Space Name
  Foundation,                             !- Outside Boundary Condition
  ,                                       !- Outside Boundary Condition Object
  NoSun,                                  !- Sun Exposure
  NoWind,                                 !- Wind Exposure
  ,                                       !- View Factor to Ground
  ,                                       !- Number of Vertices
  5.57695129776527, -3.048, 0,            !- X,Y,Z Vertex 1 {m}
  5.57695129776527, 3.048, 0,             !- X,Y,Z Vertex 2 {m}
  11.6729512977653, 3.048, 0,             !- X,Y,Z Vertex 3 {m}
  11.6729512977653, -3.048, 0;            !- X,Y,Z Vertex 4 {m}

OS:Surface,
  {fb948486-7560-40ba-9d33-f4a93cb9cfc7}, !- Handle
  Surface 2,                              !- Name
  Wall,                                   !- Surface Type
  ,                                       !- Construction Name
  {3d18c397-f4ea-4680-8ab9-72a79c948fb0}, !- Space Name
  Surface,                                !- Outside Boundary Condition
  {6bfdf8fc-bfea-4677-ad33-8ddaef61c2d8}, !- Outside Boundary Condition Object
  NoSun,                                  !- Sun Exposure
  NoWind,                                 !- Wind Exposure
  ,                                       !- View Factor to Ground
  ,                                       !- Number of Vertices
  5.57695129776527, 3.048, 2.4384,        !- X,Y,Z Vertex 1 {m}
  5.57695129776527, 3.048, 0,             !- X,Y,Z Vertex 2 {m}
  5.57695129776527, 0, 0,                 !- X,Y,Z Vertex 3 {m}
  5.57695129776527, 0, 2.4384;            !- X,Y,Z Vertex 4 {m}

OS:Surface,
  {13660a45-2f7b-4353-bbae-a5ff9146d341}, !- Handle
  Surface 3,                              !- Name
  Wall,                                   !- Surface Type
  ,                                       !- Construction Name
  {3d18c397-f4ea-4680-8ab9-72a79c948fb0}, !- Space Name
  Surface,                                !- Outside Boundary Condition
  {dac5cf59-e0c3-4a4e-8a79-9ccc71f3e6bd}, !- Outside Boundary Condition Object
  NoSun,                                  !- Sun Exposure
  NoWind,                                 !- Wind Exposure
  ,                                       !- View Factor to Ground
  ,                                       !- Number of Vertices
  11.6729512977653, 3.048, 2.4384,        !- X,Y,Z Vertex 1 {m}
  11.6729512977653, 3.048, 0,             !- X,Y,Z Vertex 2 {m}
  5.57695129776527, 3.048, 0,             !- X,Y,Z Vertex 3 {m}
  5.57695129776527, 3.048, 2.4384;        !- X,Y,Z Vertex 4 {m}

OS:Surface,
  {02748932-3680-4344-9d98-8979e9688607}, !- Handle
  Surface 4,                              !- Name
  Wall,                                   !- Surface Type
  ,                                       !- Construction Name
  {3d18c397-f4ea-4680-8ab9-72a79c948fb0}, !- Space Name
  Outdoors,                               !- Outside Boundary Condition
  ,                                       !- Outside Boundary Condition Object
  SunExposed,                             !- Sun Exposure
  WindExposed,                            !- Wind Exposure
  ,                                       !- View Factor to Ground
  ,                                       !- Number of Vertices
  11.6729512977653, -3.048, 2.4384,       !- X,Y,Z Vertex 1 {m}
  11.6729512977653, -3.048, 0,            !- X,Y,Z Vertex 2 {m}
  11.6729512977653, 3.048, 0,             !- X,Y,Z Vertex 3 {m}
  11.6729512977653, 3.048, 2.4384;        !- X,Y,Z Vertex 4 {m}

OS:Surface,
  {cf6313ad-03bb-457c-b2f0-9922225b4d8b}, !- Handle
  Surface 5,                              !- Name
  Wall,                                   !- Surface Type
  ,                                       !- Construction Name
  {3d18c397-f4ea-4680-8ab9-72a79c948fb0}, !- Space Name
  Outdoors,                               !- Outside Boundary Condition
  ,                                       !- Outside Boundary Condition Object
  SunExposed,                             !- Sun Exposure
  WindExposed,                            !- Wind Exposure
  ,                                       !- View Factor to Ground
  ,                                       !- Number of Vertices
  5.57695129776527, -3.048, 2.4384,       !- X,Y,Z Vertex 1 {m}
  5.57695129776527, -3.048, 0,            !- X,Y,Z Vertex 2 {m}
  11.6729512977653, -3.048, 0,            !- X,Y,Z Vertex 3 {m}
  11.6729512977653, -3.048, 2.4384;       !- X,Y,Z Vertex 4 {m}

OS:Surface,
  {d7b8712d-d331-4205-8f5c-47f44f8ccc44}, !- Handle
  Surface 6,                              !- Name
  RoofCeiling,                            !- Surface Type
  ,                                       !- Construction Name
  {3d18c397-f4ea-4680-8ab9-72a79c948fb0}, !- Space Name
  Surface,                                !- Outside Boundary Condition
  {d153281a-983d-4a9c-9f1f-3e0a19cf0341}, !- Outside Boundary Condition Object
  NoSun,                                  !- Sun Exposure
  NoWind,                                 !- Wind Exposure
  ,                                       !- View Factor to Ground
  ,                                       !- Number of Vertices
  11.6729512977653, -3.048, 2.4384,       !- X,Y,Z Vertex 1 {m}
  11.6729512977653, 3.048, 2.4384,        !- X,Y,Z Vertex 2 {m}
  5.57695129776527, 3.048, 2.4384,        !- X,Y,Z Vertex 3 {m}
  5.57695129776527, -3.048, 2.4384;       !- X,Y,Z Vertex 4 {m}

OS:SpaceType,
  {7abee247-a7f2-4879-a599-9a05f4dde415}, !- Handle
  Space Type 1,                           !- Name
  ,                                       !- Default Construction Set Name
  ,                                       !- Default Schedule Set Name
  ,                                       !- Group Rendering Name
  ,                                       !- Design Specification Outdoor Air Object Name
  ,                                       !- Standards Template
  ,                                       !- Standards Building Type
  garage;                                 !- Standards Space Type

OS:Space,
  {e63e35d7-d3ef-4b12-9199-372a41b2662e}, !- Handle
  living space,                           !- Name
  {84b3007f-0645-46bd-b36a-af805040bcab}, !- Space Type Name
  ,                                       !- Default Construction Set Name
  ,                                       !- Default Schedule Set Name
  -0,                                     !- Direction of Relative North {deg}
  0,                                      !- X Origin {m}
  0,                                      !- Y Origin {m}
  0,                                      !- Z Origin {m}
  ,                                       !- Building Story Name
  {b92af376-998e-440f-aae7-6d901cfd60ee}, !- Thermal Zone Name
  ,                                       !- Part of Total Floor Area
  ,                                       !- Design Specification Outdoor Air Object Name
  {acf003bc-85cc-4637-b340-c8b616604866}; !- Building Unit Name

OS:Surface,
  {f8b11e28-7a7f-48a0-b878-1ed86354177c}, !- Handle
  Surface 7,                              !- Name
  Floor,                                  !- Surface Type
  ,                                       !- Construction Name
  {e63e35d7-d3ef-4b12-9199-372a41b2662e}, !- Space Name
  Surface,                                !- Outside Boundary Condition
  {e467f7b8-d3ba-46dd-baad-7f956a544cf9}, !- Outside Boundary Condition Object
  NoSun,                                  !- Sun Exposure
  NoWind,                                 !- Wind Exposure
  ,                                       !- View Factor to Ground
  ,                                       !- Number of Vertices
  0, 0, 0,                                !- X,Y,Z Vertex 1 {m}
  0, 5.83647564888264, 0,                 !- X,Y,Z Vertex 2 {m}
  11.6729512977653, 5.83647564888264, 0,  !- X,Y,Z Vertex 3 {m}
  11.6729512977653, 3.048, 0,             !- X,Y,Z Vertex 4 {m}
  5.57695129776527, 3.048, 0,             !- X,Y,Z Vertex 5 {m}
  5.57695129776527, 0, 0;                 !- X,Y,Z Vertex 6 {m}

OS:Surface,
  {43ec317a-fdc7-40c0-b80a-010d2acd36eb}, !- Handle
  Surface 8,                              !- Name
  Wall,                                   !- Surface Type
  ,                                       !- Construction Name
  {e63e35d7-d3ef-4b12-9199-372a41b2662e}, !- Space Name
  Outdoors,                               !- Outside Boundary Condition
  ,                                       !- Outside Boundary Condition Object
  SunExposed,                             !- Sun Exposure
  WindExposed,                            !- Wind Exposure
  ,                                       !- View Factor to Ground
  ,                                       !- Number of Vertices
  0, 5.83647564888264, 2.4384,            !- X,Y,Z Vertex 1 {m}
  0, 5.83647564888264, 0,                 !- X,Y,Z Vertex 2 {m}
  0, 0, 0,                                !- X,Y,Z Vertex 3 {m}
  0, 0, 2.4384;                           !- X,Y,Z Vertex 4 {m}

OS:Surface,
  {715d728d-9550-4258-b9e1-744af32b840f}, !- Handle
  Surface 9,                              !- Name
  Wall,                                   !- Surface Type
  ,                                       !- Construction Name
  {e63e35d7-d3ef-4b12-9199-372a41b2662e}, !- Space Name
  Outdoors,                               !- Outside Boundary Condition
  ,                                       !- Outside Boundary Condition Object
  SunExposed,                             !- Sun Exposure
  WindExposed,                            !- Wind Exposure
  ,                                       !- View Factor to Ground
  ,                                       !- Number of Vertices
  11.6729512977653, 5.83647564888264, 2.4384, !- X,Y,Z Vertex 1 {m}
  11.6729512977653, 5.83647564888264, 0,  !- X,Y,Z Vertex 2 {m}
  0, 5.83647564888264, 0,                 !- X,Y,Z Vertex 3 {m}
  0, 5.83647564888264, 2.4384;            !- X,Y,Z Vertex 4 {m}

OS:Surface,
  {52bb5569-697e-486f-b462-74f1256293ba}, !- Handle
  Surface 10,                             !- Name
  Wall,                                   !- Surface Type
  ,                                       !- Construction Name
  {e63e35d7-d3ef-4b12-9199-372a41b2662e}, !- Space Name
  Outdoors,                               !- Outside Boundary Condition
  ,                                       !- Outside Boundary Condition Object
  SunExposed,                             !- Sun Exposure
  WindExposed,                            !- Wind Exposure
  ,                                       !- View Factor to Ground
  ,                                       !- Number of Vertices
  11.6729512977653, 3.048, 2.4384,        !- X,Y,Z Vertex 1 {m}
  11.6729512977653, 3.048, 0,             !- X,Y,Z Vertex 2 {m}
  11.6729512977653, 5.83647564888264, 0,  !- X,Y,Z Vertex 3 {m}
  11.6729512977653, 5.83647564888264, 2.4384; !- X,Y,Z Vertex 4 {m}

OS:Surface,
  {dac5cf59-e0c3-4a4e-8a79-9ccc71f3e6bd}, !- Handle
  Surface 11,                             !- Name
  Wall,                                   !- Surface Type
  ,                                       !- Construction Name
  {e63e35d7-d3ef-4b12-9199-372a41b2662e}, !- Space Name
  Surface,                                !- Outside Boundary Condition
  {13660a45-2f7b-4353-bbae-a5ff9146d341}, !- Outside Boundary Condition Object
  NoSun,                                  !- Sun Exposure
  NoWind,                                 !- Wind Exposure
  ,                                       !- View Factor to Ground
  ,                                       !- Number of Vertices
  5.57695129776527, 3.048, 2.4384,        !- X,Y,Z Vertex 1 {m}
  5.57695129776527, 3.048, 0,             !- X,Y,Z Vertex 2 {m}
  11.6729512977653, 3.048, 0,             !- X,Y,Z Vertex 3 {m}
  11.6729512977653, 3.048, 2.4384;        !- X,Y,Z Vertex 4 {m}

OS:Surface,
  {6bfdf8fc-bfea-4677-ad33-8ddaef61c2d8}, !- Handle
  Surface 12,                             !- Name
  Wall,                                   !- Surface Type
  ,                                       !- Construction Name
  {e63e35d7-d3ef-4b12-9199-372a41b2662e}, !- Space Name
  Surface,                                !- Outside Boundary Condition
  {fb948486-7560-40ba-9d33-f4a93cb9cfc7}, !- Outside Boundary Condition Object
  NoSun,                                  !- Sun Exposure
  NoWind,                                 !- Wind Exposure
  ,                                       !- View Factor to Ground
  ,                                       !- Number of Vertices
  5.57695129776527, 0, 2.4384,            !- X,Y,Z Vertex 1 {m}
  5.57695129776527, 0, 0,                 !- X,Y,Z Vertex 2 {m}
  5.57695129776527, 3.048, 0,             !- X,Y,Z Vertex 3 {m}
  5.57695129776527, 3.048, 2.4384;        !- X,Y,Z Vertex 4 {m}

OS:Surface,
  {e8bfc1e4-d5dc-409f-80d4-fb44cbfe3ae3}, !- Handle
  Surface 13,                             !- Name
  Wall,                                   !- Surface Type
  ,                                       !- Construction Name
  {e63e35d7-d3ef-4b12-9199-372a41b2662e}, !- Space Name
  Outdoors,                               !- Outside Boundary Condition
  ,                                       !- Outside Boundary Condition Object
  SunExposed,                             !- Sun Exposure
  WindExposed,                            !- Wind Exposure
  ,                                       !- View Factor to Ground
  ,                                       !- Number of Vertices
  0, 0, 2.4384,                           !- X,Y,Z Vertex 1 {m}
  0, 0, 0,                                !- X,Y,Z Vertex 2 {m}
  5.57695129776527, 0, 0,                 !- X,Y,Z Vertex 3 {m}
  5.57695129776527, 0, 2.4384;            !- X,Y,Z Vertex 4 {m}

OS:Surface,
  {db119587-94a8-4fef-9b02-7b4b2cf8539c}, !- Handle
  Surface 14,                             !- Name
  RoofCeiling,                            !- Surface Type
  ,                                       !- Construction Name
  {e63e35d7-d3ef-4b12-9199-372a41b2662e}, !- Space Name
  Surface,                                !- Outside Boundary Condition
  {bd039d79-1ab8-4df2-9e55-ac7b35e4d0e6}, !- Outside Boundary Condition Object
  NoSun,                                  !- Sun Exposure
  NoWind,                                 !- Wind Exposure