!- NOTE: Auto-generated from /test/osw_files/SFD_HVACSizing_Equip_GasBoiler_Autosize.osw

OS:Version,
  {ecd9d0ec-1a45-4538-8bcf-57f1a150fcde}, !- Handle
  2.9.0;                                  !- Version Identifier

OS:SimulationControl,
  {b7f9458d-d27b-4dc2-948f-fbb3a5786b6d}, !- Handle
  ,                                       !- Do Zone Sizing Calculation
  ,                                       !- Do System Sizing Calculation
  ,                                       !- Do Plant Sizing Calculation
  No;                                     !- Run Simulation for Sizing Periods

OS:Timestep,
  {18bf2097-43ed-461b-9556-2fe2d1dde41a}, !- Handle
  6;                                      !- Number of Timesteps per Hour

OS:ShadowCalculation,
  {0ba1a667-929f-4a11-9528-857f29a78238}, !- Handle
  20,                                     !- Calculation Frequency
  200;                                    !- Maximum Figures in Shadow Overlap Calculations

OS:SurfaceConvectionAlgorithm:Outside,
  {8ab834f4-f4e4-4687-a4d0-74c38478e07b}, !- Handle
  DOE-2;                                  !- Algorithm

OS:SurfaceConvectionAlgorithm:Inside,
  {98b6d110-31bf-46b5-b2be-7ed861505bf2}, !- Handle
  TARP;                                   !- Algorithm

OS:ZoneCapacitanceMultiplier:ResearchSpecial,
  {c0512ae4-8d99-47de-ae71-054469577dea}, !- Handle
  ,                                       !- Temperature Capacity Multiplier
  15,                                     !- Humidity Capacity Multiplier
  ;                                       !- Carbon Dioxide Capacity Multiplier

OS:RunPeriod,
  {04351c85-47b6-4c21-a763-a90a25db458c}, !- Handle
  Run Period 1,                           !- Name
  1,                                      !- Begin Month
  1,                                      !- Begin Day of Month
  12,                                     !- End Month
  31,                                     !- End Day of Month
  ,                                       !- Use Weather File Holidays and Special Days
  ,                                       !- Use Weather File Daylight Saving Period
  ,                                       !- Apply Weekend Holiday Rule
  ,                                       !- Use Weather File Rain Indicators
  ,                                       !- Use Weather File Snow Indicators
  ;                                       !- Number of Times Runperiod to be Repeated

OS:YearDescription,
  {5e69d9f7-6a73-42b0-8a08-495ec3b0eafc}, !- Handle
  2007,                                   !- Calendar Year
  ,                                       !- Day of Week for Start Day
  ;                                       !- Is Leap Year

OS:WeatherFile,
  {86d45301-e501-4635-a030-c5171d71039a}, !- Handle
  Denver Intl Ap,                         !- City
  CO,                                     !- State Province Region
  USA,                                    !- Country
  TMY3,                                   !- Data Source
  725650,                                 !- WMO Number
  39.83,                                  !- Latitude {deg}
  -104.65,                                !- Longitude {deg}
  -7,                                     !- Time Zone {hr}
  1650,                                   !- Elevation {m}
  file:../weather/USA_CO_Denver.Intl.AP.725650_TMY3.epw, !- Url
  E23378AA;                               !- Checksum

OS:AdditionalProperties,
  {99488bd8-bcab-43bd-9bb6-c3c70f841f0e}, !- Handle
  {86d45301-e501-4635-a030-c5171d71039a}, !- Object Name
  EPWHeaderCity,                          !- Feature Name 1
  String,                                 !- Feature Data Type 1
  Denver Intl Ap,                         !- Feature Value 1
  EPWHeaderState,                         !- Feature Name 2
  String,                                 !- Feature Data Type 2
  CO,                                     !- Feature Value 2
  EPWHeaderCountry,                       !- Feature Name 3
  String,                                 !- Feature Data Type 3
  USA,                                    !- Feature Value 3
  EPWHeaderDataSource,                    !- Feature Name 4
  String,                                 !- Feature Data Type 4
  TMY3,                                   !- Feature Value 4
  EPWHeaderStation,                       !- Feature Name 5
  String,                                 !- Feature Data Type 5
  725650,                                 !- Feature Value 5
  EPWHeaderLatitude,                      !- Feature Name 6
  Double,                                 !- Feature Data Type 6
  39.829999999999998,                     !- Feature Value 6
  EPWHeaderLongitude,                     !- Feature Name 7
  Double,                                 !- Feature Data Type 7
  -104.65000000000001,                    !- Feature Value 7
  EPWHeaderTimezone,                      !- Feature Name 8
  Double,                                 !- Feature Data Type 8
  -7,                                     !- Feature Value 8
  EPWHeaderAltitude,                      !- Feature Name 9
  Double,                                 !- Feature Data Type 9
  5413.3858267716532,                     !- Feature Value 9
  EPWHeaderLocalPressure,                 !- Feature Name 10
  Double,                                 !- Feature Data Type 10
  0.81937567683596546,                    !- Feature Value 10
  EPWHeaderRecordsPerHour,                !- Feature Name 11
  Double,                                 !- Feature Data Type 11
  0,                                      !- Feature Value 11
  EPWDataAnnualAvgDrybulb,                !- Feature Name 12
  Double,                                 !- Feature Data Type 12
  51.575616438356228,                     !- Feature Value 12
  EPWDataAnnualMinDrybulb,                !- Feature Name 13
  Double,                                 !- Feature Data Type 13
  -2.9200000000000017,                    !- Feature Value 13
  EPWDataAnnualMaxDrybulb,                !- Feature Name 14
  Double,                                 !- Feature Data Type 14
  104,                                    !- Feature Value 14
  EPWDataCDD50F,                          !- Feature Name 15
  Double,                                 !- Feature Data Type 15
  3072.2925000000005,                     !- Feature Value 15
  EPWDataCDD65F,                          !- Feature Name 16
  Double,                                 !- Feature Data Type 16
  883.62000000000035,                     !- Feature Value 16
  EPWDataHDD50F,                          !- Feature Name 17
  Double,                                 !- Feature Data Type 17
  2497.1925000000001,                     !- Feature Value 17
  EPWDataHDD65F,                          !- Feature Name 18
  Double,                                 !- Feature Data Type 18
  5783.5200000000013,                     !- Feature Value 18
  EPWDataAnnualAvgWindspeed,              !- Feature Name 19
  Double,                                 !- Feature Data Type 19
  3.9165296803649667,                     !- Feature Value 19
  EPWDataMonthlyAvgDrybulbs,              !- Feature Name 20
  String,                                 !- Feature Data Type 20
  33.4191935483871&#4431.90142857142857&#4443.02620967741937&#4442.48624999999999&#4459.877741935483854&#4473.57574999999997&#4472.07975806451608&#4472.70008064516134&#4466.49200000000006&#4450.079112903225806&#4437.218250000000005&#4434.582177419354835, !- Feature Value 20
  EPWDataGroundMonthlyTemps,              !- Feature Name 21
  String,                                 !- Feature Data Type 21
  44.08306285945173&#4440.89570904991865&#4440.64045432632048&#4442.153016571250646&#4448.225111118704206&#4454.268919273837525&#4459.508577937551024&#4462.82777283423508&#4463.10975667174995&#4460.41014950381947&#4455.304105212311526&#4449.445696474514364, !- Feature Value 21
  EPWDataWSF,                             !- Feature Name 22
  Double,                                 !- Feature Data Type 22
  0.58999999999999997,                    !- Feature Value 22
  EPWDataMonthlyAvgDailyHighDrybulbs,     !- Feature Name 23
  String,                                 !- Feature Data Type 23
  47.41032258064516&#4446.58642857142857&#4455.15032258064517&#4453.708&#4472.80193548387098&#4488.67600000000002&#4486.1858064516129&#4485.87225806451613&#4482.082&#4463.18064516129033&#4448.73400000000001&#4448.87935483870968, !- Feature Value 23
  EPWDataMonthlyAvgDailyLowDrybulbs,      !- Feature Name 24
  String,                                 !- Feature Data Type 24
  19.347741935483874&#4419.856428571428573&#4430.316129032258065&#4431.112&#4447.41612903225806&#4457.901999999999994&#4459.063870967741934&#4460.956774193548384&#4452.352000000000004&#4438.41612903225806&#4427.002000000000002&#4423.02903225806451, !- Feature Value 24
  EPWDesignHeatingDrybulb,                !- Feature Name 25
  Double,                                 !- Feature Data Type 25
  12.02,                                  !- Feature Value 25
  EPWDesignHeatingWindspeed,              !- Feature Name 26
  Double,                                 !- Feature Data Type 26
  2.8062500000000004,                     !- Feature Value 26
  EPWDesignCoolingDrybulb,                !- Feature Name 27
  Double,                                 !- Feature Data Type 27
  91.939999999999998,                     !- Feature Value 27
  EPWDesignCoolingWetbulb,                !- Feature Name 28
  Double,                                 !- Feature Data Type 28
  59.95131430195849,                      !- Feature Value 28
  EPWDesignCoolingHumidityRatio,          !- Feature Name 29
  Double,                                 !- Feature Data Type 29
  0.0059161086834698092,                  !- Feature Value 29
  EPWDesignCoolingWindspeed,              !- Feature Name 30
  Double,                                 !- Feature Data Type 30
  3.7999999999999989,                     !- Feature Value 30
  EPWDesignDailyTemperatureRange,         !- Feature Name 31
  Double,                                 !- Feature Data Type 31
  24.915483870967748,                     !- Feature Value 31
  EPWDesignDehumidDrybulb,                !- Feature Name 32
  Double,                                 !- Feature Data Type 32
  67.996785714285721,                     !- Feature Value 32
  EPWDesignDehumidHumidityRatio,          !- Feature Name 33
  Double,                                 !- Feature Data Type 33
  0.012133744170488724,                   !- Feature Value 33
  EPWDesignCoolingDirectNormal,           !- Feature Name 34
  Double,                                 !- Feature Data Type 34
  985,                                    !- Feature Value 34
  EPWDesignCoolingDiffuseHorizontal,      !- Feature Name 35
  Double,                                 !- Feature Data Type 35
  84;                                     !- Feature Value 35

OS:Site,
  {27a3af6e-30ac-4fe3-bb19-1a1205d230ae}, !- Handle
  Denver Intl Ap_CO_USA,                  !- Name
  39.83,                                  !- Latitude {deg}
  -104.65,                                !- Longitude {deg}
  -7,                                     !- Time Zone {hr}
  1650,                                   !- Elevation {m}
  Suburbs;                                !- Terrain

OS:ClimateZones,
  {8220968d-d7db-4076-9a96-63bf0b7e88e9}, !- Handle
  ,                                       !- Active Institution
  ,                                       !- Active Year
  ,                                       !- Climate Zone Institution Name 1
  ,                                       !- Climate Zone Document Name 1
  ,                                       !- Climate Zone Document Year 1
  ,                                       !- Climate Zone Value 1
  Building America,                       !- Climate Zone Institution Name 2
  ,                                       !- Climate Zone Document Name 2
  0,                                      !- Climate Zone Document Year 2
  Cold;                                   !- Climate Zone Value 2

OS:Site:WaterMainsTemperature,
  {a0451394-c2a7-42e7-af5c-1a554f0daceb}, !- Handle
  Correlation,                            !- Calculation Method
  ,                                       !- Temperature Schedule Name
  10.8753424657535,                       !- Annual Average Outdoor Air Temperature {C}
  23.1524007936508;                       !- Maximum Difference In Monthly Average Outdoor Air Temperatures {deltaC}

OS:RunPeriodControl:DaylightSavingTime,
  {a805427b-5bd1-4cd3-8f5c-ecf2c6810761}, !- Handle
  4/7,                                    !- Start Date
  10/26;                                  !- End Date

OS:Site:GroundTemperature:Deep,
  {d106a40e-64a3-4d08-94df-ff5984c996ba}, !- Handle
  10.8753424657535,                       !- January Deep Ground Temperature {C}
  10.8753424657535,                       !- February Deep Ground Temperature {C}
  10.8753424657535,                       !- March Deep Ground Temperature {C}
  10.8753424657535,                       !- April Deep Ground Temperature {C}
  10.8753424657535,                       !- May Deep Ground Temperature {C}
  10.8753424657535,                       !- June Deep Ground Temperature {C}
  10.8753424657535,                       !- July Deep Ground Temperature {C}
  10.8753424657535,                       !- August Deep Ground Temperature {C}
  10.8753424657535,                       !- September Deep Ground Temperature {C}
  10.8753424657535,                       !- October Deep Ground Temperature {C}
  10.8753424657535,                       !- November Deep Ground Temperature {C}
  10.8753424657535;                       !- December Deep Ground Temperature {C}

OS:ThermalZone,
  {fd60797e-0f70-4af7-8b8b-d233114bc74c}, !- Handle
  living zone,                            !- Name
  ,                                       !- Multiplier
  ,                                       !- Ceiling Height {m}
  ,                                       !- Volume {m3}
  ,                                       !- Floor Area {m2}
  ,                                       !- Zone Inside Convection Algorithm
  ,                                       !- Zone Outside Convection Algorithm
  ,                                       !- Zone Conditioning Equipment List Name
  {e323bc0c-e40e-484d-9c34-6bf054080928}, !- Zone Air Inlet Port List
  {612ecb7f-66f6-474f-a182-933e43027d1e}, !- Zone Air Exhaust Port List
  {4c2db825-9688-41e3-9a2c-38d52d4e4ef2}, !- Zone Air Node Name
  {ee5e70b0-01ab-41d6-9f6c-b3bda9fa82df}, !- Zone Return Air Port List
  ,                                       !- Primary Daylighting Control Name
  ,                                       !- Fraction of Zone Controlled by Primary Daylighting Control
  ,                                       !- Secondary Daylighting Control Name
  ,                                       !- Fraction of Zone Controlled by Secondary Daylighting Control
  ,                                       !- Illuminance Map Name
  ,                                       !- Group Rendering Name
  {502e9b9f-6a2d-4144-bd46-efef2894c119}, !- Thermostat Name
  No;                                     !- Use Ideal Air Loads

OS:Node,
  {d29b8c09-08b6-4164-9882-bf0c2f3db4d5}, !- Handle
  Node 1,                                 !- Name
  {4c2db825-9688-41e3-9a2c-38d52d4e4ef2}, !- Inlet Port
  ;                                       !- Outlet Port

OS:Connection,
  {4c2db825-9688-41e3-9a2c-38d52d4e4ef2}, !- Handle
  {6cffc641-3863-4529-82e5-5e249b6f2ee1}, !- Name
  {fd60797e-0f70-4af7-8b8b-d233114bc74c}, !- Source Object
  11,                                     !- Outlet Port
  {d29b8c09-08b6-4164-9882-bf0c2f3db4d5}, !- Target Object
  2;                                      !- Inlet Port

OS:PortList,
  {e323bc0c-e40e-484d-9c34-6bf054080928}, !- Handle
  {5c38f51d-0df3-4d94-a2b0-1e58e9e5ca65}, !- Name
  {fd60797e-0f70-4af7-8b8b-d233114bc74c}; !- HVAC Component

OS:PortList,
  {612ecb7f-66f6-474f-a182-933e43027d1e}, !- Handle
  {159e9a4c-6568-4f3e-aadf-1040ef38447b}, !- Name
  {fd60797e-0f70-4af7-8b8b-d233114bc74c}; !- HVAC Component

OS:PortList,
  {ee5e70b0-01ab-41d6-9f6c-b3bda9fa82df}, !- Handle
  {575ab7a0-9165-424c-aaf2-3170221e82fe}, !- Name
  {fd60797e-0f70-4af7-8b8b-d233114bc74c}; !- HVAC Component

OS:Sizing:Zone,
  {eeeb9d2f-6e26-4ced-b832-c0144779058a}, !- Handle
  {fd60797e-0f70-4af7-8b8b-d233114bc74c}, !- Zone or ZoneList Name
  SupplyAirTemperature,                   !- Zone Cooling Design Supply Air Temperature Input Method
  14,                                     !- Zone Cooling Design Supply Air Temperature {C}
  11.11,                                  !- Zone Cooling Design Supply Air Temperature Difference {deltaC}
  SupplyAirTemperature,                   !- Zone Heating Design Supply Air Temperature Input Method
  40,                                     !- Zone Heating Design Supply Air Temperature {C}
  11.11,                                  !- Zone Heating Design Supply Air Temperature Difference {deltaC}
  0.0085,                                 !- Zone Cooling Design Supply Air Humidity Ratio {kg-H2O/kg-air}
  0.008,                                  !- Zone Heating Design Supply Air Humidity Ratio {kg-H2O/kg-air}
  ,                                       !- Zone Heating Sizing Factor
  ,                                       !- Zone Cooling Sizing Factor
  DesignDay,                              !- Cooling Design Air Flow Method
  ,                                       !- Cooling Design Air Flow Rate {m3/s}
  ,                                       !- Cooling Minimum Air Flow per Zone Floor Area {m3/s-m2}
  ,                                       !- Cooling Minimum Air Flow {m3/s}
  ,                                       !- Cooling Minimum Air Flow Fraction
  DesignDay,                              !- Heating Design Air Flow Method
  ,                                       !- Heating Design Air Flow Rate {m3/s}
  ,                                       !- Heating Maximum Air Flow per Zone Floor Area {m3/s-m2}
  ,                                       !- Heating Maximum Air Flow {m3/s}
  ,                                       !- Heating Maximum Air Flow Fraction
  ,                                       !- Design Zone Air Distribution Effectiveness in Cooling Mode
  ,                                       !- Design Zone Air Distribution Effectiveness in Heating Mode
  No,                                     !- Account for Dedicated Outdoor Air System
  NeutralSupplyAir,                       !- Dedicated Outdoor Air System Control Strategy
  autosize,                               !- Dedicated Outdoor Air Low Setpoint Temperature for Design {C}
  autosize;                               !- Dedicated Outdoor Air High Setpoint Temperature for Design {C}

OS:ZoneHVAC:EquipmentList,
  {056ac6dd-07d4-4a45-b20d-13d0ad50ce3d}, !- Handle
  Zone HVAC Equipment List 1,             !- Name
  {fd60797e-0f70-4af7-8b8b-d233114bc74c}, !- Thermal Zone
  SequentialLoad,                         !- Load Distribution Scheme
  {97b9c503-9584-4f05-884b-50461445e36c}, !- Zone Equipment 1
  1,                                      !- Zone Equipment Cooling Sequence 1
  1,                                      !- Zone Equipment Heating or No-Load Sequence 1
  ,                                       !- Zone Equipment Sequential Cooling Fraction Schedule Name 1
  ;                                       !- Zone Equipment Sequential Heating Fraction Schedule Name 1

OS:ThermalZone,
  {cd6e7725-6459-492f-bfcb-3326a85aa450}, !- Handle
  garage zone,                            !- Name
  ,                                       !- Multiplier
  ,                                       !- Ceiling Height {m}
  ,                                       !- Volume {m3}
  ,                                       !- Floor Area {m2}
  ,                                       !- Zone Inside Convection Algorithm
  ,                                       !- Zone Outside Convection Algorithm
  ,                                       !- Zone Conditioning Equipment List Name
  {685ddc00-acef-4d65-8c33-f15046e584f9}, !- Zone Air Inlet Port List
  {6ad7fcbc-e09a-42f7-8af3-009302ed8c90}, !- Zone Air Exhaust Port List
  {b99cafd4-cae8-4b75-9683-ffaa405e2099}, !- Zone Air Node Name
  {ca4d2b88-432d-4bf3-a19d-e92ba421e33f}, !- Zone Return Air Port List
  ,                                       !- Primary Daylighting Control Name
  ,                                       !- Fraction of Zone Controlled by Primary Daylighting Control
  ,                                       !- Secondary Daylighting Control Name
  ,                                       !- Fraction of Zone Controlled by Secondary Daylighting Control
  ,                                       !- Illuminance Map Name
  ,                                       !- Group Rendering Name
  ,                                       !- Thermostat Name
  No;                                     !- Use Ideal Air Loads

OS:Node,
  {2d870355-0da1-4ef6-82e4-74a6b20a15a7}, !- Handle
  Node 2,                                 !- Name
  {b99cafd4-cae8-4b75-9683-ffaa405e2099}, !- Inlet Port
  ;                                       !- Outlet Port

OS:Connection,
  {b99cafd4-cae8-4b75-9683-ffaa405e2099}, !- Handle
  {60720253-9ff9-4b4b-bf6f-8a8c43ec46f3}, !- Name
  {cd6e7725-6459-492f-bfcb-3326a85aa450}, !- Source Object
  11,                                     !- Outlet Port
  {2d870355-0da1-4ef6-82e4-74a6b20a15a7}, !- Target Object
  2;                                      !- Inlet Port

OS:PortList,
  {685ddc00-acef-4d65-8c33-f15046e584f9}, !- Handle
  {a5cf4c58-f4d5-4a5f-97cc-67666ee3e851}, !- Name
  {cd6e7725-6459-492f-bfcb-3326a85aa450}; !- HVAC Component

OS:PortList,
  {6ad7fcbc-e09a-42f7-8af3-009302ed8c90}, !- Handle
  {523bd113-1326-4b5e-83af-ad5b6e5a9470}, !- Name
  {cd6e7725-6459-492f-bfcb-3326a85aa450}; !- HVAC Component

OS:PortList,
  {ca4d2b88-432d-4bf3-a19d-e92ba421e33f}, !- Handle
  {f5b2a115-ae49-4dbf-bc3c-d38fcc3e0112}, !- Name
  {cd6e7725-6459-492f-bfcb-3326a85aa450}; !- HVAC Component

OS:Sizing:Zone,
  {c965fb8d-c111-4a8f-b7b1-36f73121f9c8}, !- Handle
  {cd6e7725-6459-492f-bfcb-3326a85aa450}, !- Zone or ZoneList Name
  SupplyAirTemperature,                   !- Zone Cooling Design Supply Air Temperature Input Method
  14,                                     !- Zone Cooling Design Supply Air Temperature {C}
  11.11,                                  !- Zone Cooling Design Supply Air Temperature Difference {deltaC}
  SupplyAirTemperature,                   !- Zone Heating Design Supply Air Temperature Input Method
  40,                                     !- Zone Heating Design Supply Air Temperature {C}
  11.11,                                  !- Zone Heating Design Supply Air Temperature Difference {deltaC}
  0.0085,                                 !- Zone Cooling Design Supply Air Humidity Ratio {kg-H2O/kg-air}
  0.008,                                  !- Zone Heating Design Supply Air Humidity Ratio {kg-H2O/kg-air}
  ,                                       !- Zone Heating Sizing Factor
  ,                                       !- Zone Cooling Sizing Factor
  DesignDay,                              !- Cooling Design Air Flow Method
  ,                                       !- Cooling Design Air Flow Rate {m3/s}
  ,                                       !- Cooling Minimum Air Flow per Zone Floor Area {m3/s-m2}
  ,                                       !- Cooling Minimum Air Flow {m3/s}
  ,                                       !- Cooling Minimum Air Flow Fraction
  DesignDay,                              !- Heating Design Air Flow Method
  ,                                       !- Heating Design Air Flow Rate {m3/s}
  ,                                       !- Heating Maximum Air Flow per Zone Floor Area {m3/s-m2}
  ,                                       !- Heating Maximum Air Flow {m3/s}
  ,                                       !- Heating Maximum Air Flow Fraction
  ,                                       !- Design Zone Air Distribution Effectiveness in Cooling Mode
  ,                                       !- Design Zone Air Distribution Effectiveness in Heating Mode
  No,                                     !- Account for Dedicated Outdoor Air System
  NeutralSupplyAir,                       !- Dedicated Outdoor Air System Control Strategy
  autosize,                               !- Dedicated Outdoor Air Low Setpoint Temperature for Design {C}
  autosize;                               !- Dedicated Outdoor Air High Setpoint Temperature for Design {C}

OS:ZoneHVAC:EquipmentList,
  {52c375a6-7016-4362-9930-3c1bbf6e84de}, !- Handle
  Zone HVAC Equipment List 2,             !- Name
  {cd6e7725-6459-492f-bfcb-3326a85aa450}; !- Thermal Zone

OS:Space,
  {82110f4b-647a-46ba-a431-9c90a1d3f71f}, !- Handle
  garage space,                           !- Name
  {615c80d2-085b-40ad-9242-314ab347e9ec}, !- Space Type Name
  ,                                       !- Default Construction Set Name
  ,                                       !- Default Schedule Set Name
  -0,                                     !- Direction of Relative North {deg}
  0,                                      !- X Origin {m}
  0,                                      !- Y Origin {m}
  0,                                      !- Z Origin {m}
  ,                                       !- Building Story Name
  {cd6e7725-6459-492f-bfcb-3326a85aa450}; !- Thermal Zone Name

OS:Surface,
  {76d2bde1-9eb7-4631-9434-5a6dc1723558}, !- Handle
  Surface 1,                              !- Name
  Floor,                                  !- Surface Type
  {3cb97e28-717d-4d12-b80c-dbeeae321fbe}, !- Construction Name
  {82110f4b-647a-46ba-a431-9c90a1d3f71f}, !- Space Name
  Foundation,                             !- Outside Boundary Condition
  {7aad055b-37cf-47b8-b9a9-6edc87d3ddc4}, !- Outside Boundary Condition Object
  NoSun,                                  !- Sun Exposure
  NoWind,                                 !- Wind Exposure
  ,                                       !- View Factor to Ground
  ,                                       !- Number of Vertices
  8.91701625975123, -3.048, 0,            !- X,Y,Z Vertex 1 {m}
  8.91701625975123, 3.048, 0,             !- X,Y,Z Vertex 2 {m}
  12.5746162597512, 3.048, 0,             !- X,Y,Z Vertex 3 {m}
  12.5746162597512, -3.048, 0;            !- X,Y,Z Vertex 4 {m}

OS:Surface,
  {4c893d3c-04c9-4c51-b16a-c9e53c048870}, !- Handle
  Surface 2,                              !- Name
  Wall,                                   !- Surface Type
  {bd3b3879-a667-47f0-be71-e8dfc79588e3}, !- Construction Name
  {82110f4b-647a-46ba-a431-9c90a1d3f71f}, !- Space Name
  Surface,                                !- Outside Boundary Condition
  {f6640cdc-a7b3-4a65-88a4-aebaeeeb8d40}, !- Outside Boundary Condition Object
  NoSun,                                  !- Sun Exposure
  NoWind,                                 !- Wind Exposure
  ,                                       !- View Factor to Ground
  ,                                       !- Number of Vertices
  8.91701625975123, 3.048, 2.4384,        !- X,Y,Z Vertex 1 {m}
  8.91701625975123, 3.048, 0,             !- X,Y,Z Vertex 2 {m}
  8.91701625975123, 0, 0,                 !- X,Y,Z Vertex 3 {m}
  8.91701625975123, 0, 2.4384;            !- X,Y,Z Vertex 4 {m}

OS:Surface,
  {5357fb13-06e5-451c-a938-f2f0ad517a40}, !- Handle
  Surface 3,                              !- Name
  Wall,                                   !- Surface Type
  {bd3b3879-a667-47f0-be71-e8dfc79588e3}, !- Construction Name
  {82110f4b-647a-46ba-a431-9c90a1d3f71f}, !- Space Name
  Surface,                                !- Outside Boundary Condition
  {8450f5f6-25a1-4d2f-bdd5-66beffc562d0}, !- Outside Boundary Condition Object
  NoSun,                                  !- Sun Exposure
  NoWind,                                 !- Wind Exposure
  ,                                       !- View Factor to Ground
  ,                                       !- Number of Vertices
  12.5746162597512, 3.048, 2.4384,        !- X,Y,Z Vertex 1 {m}
  12.5746162597512, 3.048, 0,             !- X,Y,Z Vertex 2 {m}
  8.91701625975123, 3.048, 0,             !- X,Y,Z Vertex 3 {m}
  8.91701625975123, 3.048, 2.4384;        !- X,Y,Z Vertex 4 {m}

OS:Surface,
  {eae1eb71-19e2-443a-a10c-c003d7468018}, !- Handle
  Surface 4,                              !- Name
  Wall,                                   !- Surface Type
  {ed983223-0bd6-471a-86f6-180463fe2ade}, !- Construction Name
  {82110f4b-647a-46ba-a431-9c90a1d3f71f}, !- Space Name
  Outdoors,                               !- Outside Boundary Condition
  ,                                       !- Outside Boundary Condition Object
  SunExposed,                             !- Sun Exposure
  WindExposed,                            !- Wind Exposure
  ,                                       !- View Factor to Ground
  ,                                       !- Number of Vertices
  12.5746162597512, -3.048, 2.4384,       !- X,Y,Z Vertex 1 {m}
  12.5746162597512, -3.048, 0,            !- X,Y,Z Vertex 2 {m}
  12.5746162597512, 3.048, 0,             !- X,Y,Z Vertex 3 {m}
  12.5746162597512, 3.048, 2.4384;        !- X,Y,Z Vertex 4 {m}

OS:Surface,
  {f46b8f9b-9336-40df-8673-1ba01fe9815f}, !- Handle
  Surface 5,                              !- Name
  Wall,                                   !- Surface Type
  {ed983223-0bd6-471a-86f6-180463fe2ade}, !- Construction Name
  {82110f4b-647a-46ba-a431-9c90a1d3f71f}, !- Space Name
  Outdoors,                               !- Outside Boundary Condition
  ,                                       !- Outside Boundary Condition Object
  SunExposed,                             !- Sun Exposure
  WindExposed,                            !- Wind Exposure