!- NOTE: Auto-generated from /test/osw_files/SFD_1story_FB_UA_GRG_RoomAC_ElecBoiler_FuelTanklessWH.osw

OS:Version,
  {0a9a87db-8157-4e0f-95c0-6a6f6c73a72b}, !- Handle
  2.9.1;                                  !- Version Identifier

OS:SimulationControl,
  {9ecbcbd0-538a-4172-9979-77b0b89f5897}, !- Handle
  ,                                       !- Do Zone Sizing Calculation
  ,                                       !- Do System Sizing Calculation
  ,                                       !- Do Plant Sizing Calculation
  No;                                     !- Run Simulation for Sizing Periods

OS:Timestep,
  {861de764-4afb-4475-b9d9-33ae6c854da0}, !- Handle
  6;                                      !- Number of Timesteps per Hour

OS:ShadowCalculation,
  {96ae2d6a-d765-45b1-94d3-14aeb6cb5daa}, !- Handle
  20,                                     !- Calculation Frequency
  200;                                    !- Maximum Figures in Shadow Overlap Calculations

OS:SurfaceConvectionAlgorithm:Outside,
  {cab1eb09-e8b8-43ce-b124-5ab77f767e7e}, !- Handle
  DOE-2;                                  !- Algorithm

OS:SurfaceConvectionAlgorithm:Inside,
  {0b23cf2e-edca-4a9a-a4ef-20d5f073d290}, !- Handle
  TARP;                                   !- Algorithm

OS:ZoneCapacitanceMultiplier:ResearchSpecial,
  {5feadd3d-2b15-465a-a998-20c07d05dad8}, !- Handle
  ,                                       !- Temperature Capacity Multiplier
  15,                                     !- Humidity Capacity Multiplier
  ;                                       !- Carbon Dioxide Capacity Multiplier

OS:RunPeriod,
  {4995da8f-6ffa-4649-8fe2-bbbd05508786}, !- Handle
  Run Period 1,                           !- Name
  1,                                      !- Begin Month
  1,                                      !- Begin Day of Month
  12,                                     !- End Month
  31,                                     !- End Day of Month
  ,                                       !- Use Weather File Holidays and Special Days
  ,                                       !- Use Weather File Daylight Saving Period
  ,                                       !- Apply Weekend Holiday Rule
  ,                                       !- Use Weather File Rain Indicators
  ,                                       !- Use Weather File Snow Indicators
  ;                                       !- Number of Times Runperiod to be Repeated

OS:YearDescription,
  {174f4d26-c169-43eb-87bb-b8369dddcc75}, !- Handle
  2007,                                   !- Calendar Year
  ,                                       !- Day of Week for Start Day
  ;                                       !- Is Leap Year

OS:WeatherFile,
  {d674d7b2-041e-454b-8c52-3d77e41f4b2f}, !- Handle
  Denver Intl Ap,                         !- City
  CO,                                     !- State Province Region
  USA,                                    !- Country
  TMY3,                                   !- Data Source
  725650,                                 !- WMO Number
  39.83,                                  !- Latitude {deg}
  -104.65,                                !- Longitude {deg}
  -7,                                     !- Time Zone {hr}
  1650,                                   !- Elevation {m}
  file:../weather/USA_CO_Denver.Intl.AP.725650_TMY3.epw, !- Url
  E23378AA;                               !- Checksum

OS:AdditionalProperties,
  {82568236-bb4d-49c1-a702-c78eddac9573}, !- Handle
  {d674d7b2-041e-454b-8c52-3d77e41f4b2f}, !- Object Name
  EPWHeaderCity,                          !- Feature Name 1
  String,                                 !- Feature Data Type 1
  Denver Intl Ap,                         !- Feature Value 1
  EPWHeaderState,                         !- Feature Name 2
  String,                                 !- Feature Data Type 2
  CO,                                     !- Feature Value 2
  EPWHeaderCountry,                       !- Feature Name 3
  String,                                 !- Feature Data Type 3
  USA,                                    !- Feature Value 3
  EPWHeaderDataSource,                    !- Feature Name 4
  String,                                 !- Feature Data Type 4
  TMY3,                                   !- Feature Value 4
  EPWHeaderStation,                       !- Feature Name 5
  String,                                 !- Feature Data Type 5
  725650,                                 !- Feature Value 5
  EPWHeaderLatitude,                      !- Feature Name 6
  Double,                                 !- Feature Data Type 6
  39.829999999999998,                     !- Feature Value 6
  EPWHeaderLongitude,                     !- Feature Name 7
  Double,                                 !- Feature Data Type 7
  -104.65000000000001,                    !- Feature Value 7
  EPWHeaderTimezone,                      !- Feature Name 8
  Double,                                 !- Feature Data Type 8
  -7,                                     !- Feature Value 8
  EPWHeaderAltitude,                      !- Feature Name 9
  Double,                                 !- Feature Data Type 9
  5413.3858267716532,                     !- Feature Value 9
  EPWHeaderLocalPressure,                 !- Feature Name 10
  Double,                                 !- Feature Data Type 10
  0.81937567683596546,                    !- Feature Value 10
  EPWHeaderRecordsPerHour,                !- Feature Name 11
  Double,                                 !- Feature Data Type 11
  0,                                      !- Feature Value 11
  EPWDataAnnualAvgDrybulb,                !- Feature Name 12
  Double,                                 !- Feature Data Type 12
  51.575616438356228,                     !- Feature Value 12
  EPWDataAnnualMinDrybulb,                !- Feature Name 13
  Double,                                 !- Feature Data Type 13
  -2.9200000000000017,                    !- Feature Value 13
  EPWDataAnnualMaxDrybulb,                !- Feature Name 14
  Double,                                 !- Feature Data Type 14
  104,                                    !- Feature Value 14
  EPWDataCDD50F,                          !- Feature Name 15
  Double,                                 !- Feature Data Type 15
  3072.2925000000005,                     !- Feature Value 15
  EPWDataCDD65F,                          !- Feature Name 16
  Double,                                 !- Feature Data Type 16
  883.62000000000035,                     !- Feature Value 16
  EPWDataHDD50F,                          !- Feature Name 17
  Double,                                 !- Feature Data Type 17
  2497.1925000000001,                     !- Feature Value 17
  EPWDataHDD65F,                          !- Feature Name 18
  Double,                                 !- Feature Data Type 18
  5783.5200000000013,                     !- Feature Value 18
  EPWDataAnnualAvgWindspeed,              !- Feature Name 19
  Double,                                 !- Feature Data Type 19
  3.9165296803649667,                     !- Feature Value 19
  EPWDataMonthlyAvgDrybulbs,              !- Feature Name 20
  String,                                 !- Feature Data Type 20
  33.4191935483871&#4431.90142857142857&#4443.02620967741937&#4442.48624999999999&#4459.877741935483854&#4473.57574999999997&#4472.07975806451608&#4472.70008064516134&#4466.49200000000006&#4450.079112903225806&#4437.218250000000005&#4434.582177419354835, !- Feature Value 20
  EPWDataGroundMonthlyTemps,              !- Feature Name 21
  String,                                 !- Feature Data Type 21
  44.08306285945173&#4440.89570904991865&#4440.64045432632048&#4442.153016571250646&#4448.225111118704206&#4454.268919273837525&#4459.508577937551024&#4462.82777283423508&#4463.10975667174995&#4460.41014950381947&#4455.304105212311526&#4449.445696474514364, !- Feature Value 21
  EPWDataWSF,                             !- Feature Name 22
  Double,                                 !- Feature Data Type 22
  0.58999999999999997,                    !- Feature Value 22
  EPWDataMonthlyAvgDailyHighDrybulbs,     !- Feature Name 23
  String,                                 !- Feature Data Type 23
  47.41032258064516&#4446.58642857142857&#4455.15032258064517&#4453.708&#4472.80193548387098&#4488.67600000000002&#4486.1858064516129&#4485.87225806451613&#4482.082&#4463.18064516129033&#4448.73400000000001&#4448.87935483870968, !- Feature Value 23
  EPWDataMonthlyAvgDailyLowDrybulbs,      !- Feature Name 24
  String,                                 !- Feature Data Type 24
  19.347741935483874&#4419.856428571428573&#4430.316129032258065&#4431.112&#4447.41612903225806&#4457.901999999999994&#4459.063870967741934&#4460.956774193548384&#4452.352000000000004&#4438.41612903225806&#4427.002000000000002&#4423.02903225806451, !- Feature Value 24
  EPWDesignHeatingDrybulb,                !- Feature Name 25
  Double,                                 !- Feature Data Type 25
  12.02,                                  !- Feature Value 25
  EPWDesignHeatingWindspeed,              !- Feature Name 26
  Double,                                 !- Feature Data Type 26
  2.8062500000000004,                     !- Feature Value 26
  EPWDesignCoolingDrybulb,                !- Feature Name 27
  Double,                                 !- Feature Data Type 27
  91.939999999999998,                     !- Feature Value 27
  EPWDesignCoolingWetbulb,                !- Feature Name 28
  Double,                                 !- Feature Data Type 28
  59.95131430195849,                      !- Feature Value 28
  EPWDesignCoolingHumidityRatio,          !- Feature Name 29
  Double,                                 !- Feature Data Type 29
  0.0059161086834698092,                  !- Feature Value 29
  EPWDesignCoolingWindspeed,              !- Feature Name 30
  Double,                                 !- Feature Data Type 30
  3.7999999999999989,                     !- Feature Value 30
  EPWDesignDailyTemperatureRange,         !- Feature Name 31
  Double,                                 !- Feature Data Type 31
  24.915483870967748,                     !- Feature Value 31
  EPWDesignDehumidDrybulb,                !- Feature Name 32
  Double,                                 !- Feature Data Type 32
  67.996785714285721,                     !- Feature Value 32
  EPWDesignDehumidHumidityRatio,          !- Feature Name 33
  Double,                                 !- Feature Data Type 33
  0.012133744170488724,                   !- Feature Value 33
  EPWDesignCoolingDirectNormal,           !- Feature Name 34
  Double,                                 !- Feature Data Type 34
  985,                                    !- Feature Value 34
  EPWDesignCoolingDiffuseHorizontal,      !- Feature Name 35
  Double,                                 !- Feature Data Type 35
  84;                                     !- Feature Value 35

OS:Site,
  {5671e050-ae2d-4ec3-ae8e-60b832bf746c}, !- Handle
  Denver Intl Ap_CO_USA,                  !- Name
  39.83,                                  !- Latitude {deg}
  -104.65,                                !- Longitude {deg}
  -7,                                     !- Time Zone {hr}
  1650,                                   !- Elevation {m}
  Suburbs;                                !- Terrain

OS:ClimateZones,
  {89e3bda6-ad93-49e5-afef-a50b19f6e091}, !- Handle
  ,                                       !- Active Institution
  ,                                       !- Active Year
  ,                                       !- Climate Zone Institution Name 1
  ,                                       !- Climate Zone Document Name 1
  ,                                       !- Climate Zone Document Year 1
  ,                                       !- Climate Zone Value 1
  Building America,                       !- Climate Zone Institution Name 2
  ,                                       !- Climate Zone Document Name 2
  0,                                      !- Climate Zone Document Year 2
  Cold;                                   !- Climate Zone Value 2

OS:Site:WaterMainsTemperature,
  {174fff79-6efa-4e15-adfe-10fa5eede6b7}, !- Handle
  Correlation,                            !- Calculation Method
  ,                                       !- Temperature Schedule Name
  10.8753424657535,                       !- Annual Average Outdoor Air Temperature {C}
  23.1524007936508;                       !- Maximum Difference In Monthly Average Outdoor Air Temperatures {deltaC}

OS:RunPeriodControl:DaylightSavingTime,
  {b008fbeb-3520-453e-92c3-a157f98862d5}, !- Handle
  4/7,                                    !- Start Date
  10/26;                                  !- End Date

OS:Site:GroundTemperature:Deep,
  {4f22021a-880f-446e-a123-9fa4d192b30b}, !- Handle
  10.8753424657535,                       !- January Deep Ground Temperature {C}
  10.8753424657535,                       !- February Deep Ground Temperature {C}
  10.8753424657535,                       !- March Deep Ground Temperature {C}
  10.8753424657535,                       !- April Deep Ground Temperature {C}
  10.8753424657535,                       !- May Deep Ground Temperature {C}
  10.8753424657535,                       !- June Deep Ground Temperature {C}
  10.8753424657535,                       !- July Deep Ground Temperature {C}
  10.8753424657535,                       !- August Deep Ground Temperature {C}
  10.8753424657535,                       !- September Deep Ground Temperature {C}
  10.8753424657535,                       !- October Deep Ground Temperature {C}
  10.8753424657535,                       !- November Deep Ground Temperature {C}
  10.8753424657535;                       !- December Deep Ground Temperature {C}

OS:ThermalZone,
  {38945b6d-e871-46cf-b6f6-dfbfbcc10a7f}, !- Handle
  living zone,                            !- Name
  ,                                       !- Multiplier
  ,                                       !- Ceiling Height {m}
  ,                                       !- Volume {m3}
  ,                                       !- Floor Area {m2}
  ,                                       !- Zone Inside Convection Algorithm
  ,                                       !- Zone Outside Convection Algorithm
  ,                                       !- Zone Conditioning Equipment List Name
  {1c5ac30b-c85f-41b3-801f-c9da2393adc1}, !- Zone Air Inlet Port List
  {74e85416-db5d-43dd-a8f9-8db144a04864}, !- Zone Air Exhaust Port List
  {af9c5278-cc3b-473b-a648-256a8de13ad7}, !- Zone Air Node Name
  {02d10b25-2035-4789-8a18-17a0984b854a}, !- Zone Return Air Port List
  ,                                       !- Primary Daylighting Control Name
  ,                                       !- Fraction of Zone Controlled by Primary Daylighting Control
  ,                                       !- Secondary Daylighting Control Name
  ,                                       !- Fraction of Zone Controlled by Secondary Daylighting Control
  ,                                       !- Illuminance Map Name
  ,                                       !- Group Rendering Name
  {39888949-2eb2-4188-b64b-8244ddf8cc70}, !- Thermostat Name
  No;                                     !- Use Ideal Air Loads

OS:Node,
  {8cde95cf-f334-4b47-8e19-80de10cc6d6b}, !- Handle
  Node 1,                                 !- Name
  {af9c5278-cc3b-473b-a648-256a8de13ad7}, !- Inlet Port
  ;                                       !- Outlet Port

OS:Connection,
  {af9c5278-cc3b-473b-a648-256a8de13ad7}, !- Handle
  {b9abb7f9-db74-48f2-bd8b-65d9c39bc370}, !- Name
  {38945b6d-e871-46cf-b6f6-dfbfbcc10a7f}, !- Source Object
  11,                                     !- Outlet Port
  {8cde95cf-f334-4b47-8e19-80de10cc6d6b}, !- Target Object
  2;                                      !- Inlet Port

OS:PortList,
  {1c5ac30b-c85f-41b3-801f-c9da2393adc1}, !- Handle
  {d348a10b-418d-4e67-b8d6-dcec473fa966}, !- Name
  {38945b6d-e871-46cf-b6f6-dfbfbcc10a7f}, !- HVAC Component
  {0559a600-5baf-423a-b3bd-ad21c56265c8}; !- Port 1

OS:PortList,
  {74e85416-db5d-43dd-a8f9-8db144a04864}, !- Handle
  {4b0336b1-c465-4cee-8f30-9d500893f671}, !- Name
  {38945b6d-e871-46cf-b6f6-dfbfbcc10a7f}, !- HVAC Component
  {ad0b4c80-4acc-4080-ae9a-5083849587f1}; !- Port 1

OS:PortList,
  {02d10b25-2035-4789-8a18-17a0984b854a}, !- Handle
  {7d8055ea-2fb9-4fc1-9443-a61fe3689b5a}, !- Name
  {38945b6d-e871-46cf-b6f6-dfbfbcc10a7f}; !- HVAC Component

OS:Sizing:Zone,
  {5dbcf7f6-2b45-4f4c-b499-7b39fdbe1a52}, !- Handle
  {38945b6d-e871-46cf-b6f6-dfbfbcc10a7f}, !- Zone or ZoneList Name
  SupplyAirTemperature,                   !- Zone Cooling Design Supply Air Temperature Input Method
  14,                                     !- Zone Cooling Design Supply Air Temperature {C}
  11.11,                                  !- Zone Cooling Design Supply Air Temperature Difference {deltaC}
  SupplyAirTemperature,                   !- Zone Heating Design Supply Air Temperature Input Method
  40,                                     !- Zone Heating Design Supply Air Temperature {C}
  11.11,                                  !- Zone Heating Design Supply Air Temperature Difference {deltaC}
  0.0085,                                 !- Zone Cooling Design Supply Air Humidity Ratio {kg-H2O/kg-air}
  0.008,                                  !- Zone Heating Design Supply Air Humidity Ratio {kg-H2O/kg-air}
  ,                                       !- Zone Heating Sizing Factor
  ,                                       !- Zone Cooling Sizing Factor
  DesignDay,                              !- Cooling Design Air Flow Method
  ,                                       !- Cooling Design Air Flow Rate {m3/s}
  ,                                       !- Cooling Minimum Air Flow per Zone Floor Area {m3/s-m2}
  ,                                       !- Cooling Minimum Air Flow {m3/s}
  ,                                       !- Cooling Minimum Air Flow Fraction
  DesignDay,                              !- Heating Design Air Flow Method
  ,                                       !- Heating Design Air Flow Rate {m3/s}
  ,                                       !- Heating Maximum Air Flow per Zone Floor Area {m3/s-m2}
  ,                                       !- Heating Maximum Air Flow {m3/s}
  ,                                       !- Heating Maximum Air Flow Fraction
  ,                                       !- Design Zone Air Distribution Effectiveness in Cooling Mode
  ,                                       !- Design Zone Air Distribution Effectiveness in Heating Mode
  No,                                     !- Account for Dedicated Outdoor Air System
  NeutralSupplyAir,                       !- Dedicated Outdoor Air System Control Strategy
  autosize,                               !- Dedicated Outdoor Air Low Setpoint Temperature for Design {C}
  autosize;                               !- Dedicated Outdoor Air High Setpoint Temperature for Design {C}

OS:ZoneHVAC:EquipmentList,
  {32719a16-c24e-4c29-9081-0bd90a996035}, !- Handle
  Zone HVAC Equipment List 1,             !- Name
  {38945b6d-e871-46cf-b6f6-dfbfbcc10a7f}, !- Thermal Zone
  SequentialLoad,                         !- Load Distribution Scheme
  {89c0be98-a62a-444b-a491-e557b43c01a3}, !- Zone Equipment 1
  1,                                      !- Zone Equipment Cooling Sequence 1
  1,                                      !- Zone Equipment Heating or No-Load Sequence 1
  ,                                       !- Zone Equipment Sequential Cooling Fraction Schedule Name 1
  ,                                       !- Zone Equipment Sequential Heating Fraction Schedule Name 1
  {b644aa4d-14d1-41f3-8108-e76e3e698d94}, !- Zone Equipment 2
  2,                                      !- Zone Equipment Cooling Sequence 2
  2,                                      !- Zone Equipment Heating or No-Load Sequence 2
  ,                                       !- Zone Equipment Sequential Cooling Fraction Schedule Name 2
  ;                                       !- Zone Equipment Sequential Heating Fraction Schedule Name 2

OS:ThermalZone,
  {03afce77-59a6-4984-a58a-f7a4dd84f0d3}, !- Handle
  garage zone,                            !- Name
  ,                                       !- Multiplier
  ,                                       !- Ceiling Height {m}
  ,                                       !- Volume {m3}
  ,                                       !- Floor Area {m2}
  ,                                       !- Zone Inside Convection Algorithm
  ,                                       !- Zone Outside Convection Algorithm
  ,                                       !- Zone Conditioning Equipment List Name
  {c61c85de-af15-4c96-af53-ec98237b7f6a}, !- Zone Air Inlet Port List
  {12134e93-df43-408c-82a2-45cc29681c97}, !- Zone Air Exhaust Port List
  {cc44120b-05d3-4e4e-8dbe-8f4275fccce9}, !- Zone Air Node Name
  {815b88ef-1646-469e-b16a-0a5462f46579}, !- Zone Return Air Port List
  ,                                       !- Primary Daylighting Control Name
  ,                                       !- Fraction of Zone Controlled by Primary Daylighting Control
  ,                                       !- Secondary Daylighting Control Name
  ,                                       !- Fraction of Zone Controlled by Secondary Daylighting Control
  ,                                       !- Illuminance Map Name
  ,                                       !- Group Rendering Name
  ,                                       !- Thermostat Name
  No;                                     !- Use Ideal Air Loads

OS:Node,
  {f0738df7-02c2-4d49-98b1-a06173cbce13}, !- Handle
  Node 2,                                 !- Name
  {cc44120b-05d3-4e4e-8dbe-8f4275fccce9}, !- Inlet Port
  ;                                       !- Outlet Port

OS:Connection,
  {cc44120b-05d3-4e4e-8dbe-8f4275fccce9}, !- Handle
  {8d428726-8dd4-44f7-8832-b8f0030e57d0}, !- Name
  {03afce77-59a6-4984-a58a-f7a4dd84f0d3}, !- Source Object
  11,                                     !- Outlet Port
  {f0738df7-02c2-4d49-98b1-a06173cbce13}, !- Target Object
  2;                                      !- Inlet Port

OS:PortList,
  {c61c85de-af15-4c96-af53-ec98237b7f6a}, !- Handle
  {0c4fca39-6323-42f5-83fa-ddfc5d1da52f}, !- Name
  {03afce77-59a6-4984-a58a-f7a4dd84f0d3}; !- HVAC Component

OS:PortList,
  {12134e93-df43-408c-82a2-45cc29681c97}, !- Handle
  {d04c7c8c-29e1-4887-bebb-6219013d392e}, !- Name
  {03afce77-59a6-4984-a58a-f7a4dd84f0d3}; !- HVAC Component

OS:PortList,
  {815b88ef-1646-469e-b16a-0a5462f46579}, !- Handle
  {db3cafc3-c148-4bd1-8e09-3a842ed1f2db}, !- Name
  {03afce77-59a6-4984-a58a-f7a4dd84f0d3}; !- HVAC Component

OS:Sizing:Zone,
  {e020068f-7a41-45f2-95a6-3dab364fb2a5}, !- Handle
  {03afce77-59a6-4984-a58a-f7a4dd84f0d3}, !- Zone or ZoneList Name
  SupplyAirTemperature,                   !- Zone Cooling Design Supply Air Temperature Input Method
  14,                                     !- Zone Cooling Design Supply Air Temperature {C}
  11.11,                                  !- Zone Cooling Design Supply Air Temperature Difference {deltaC}
  SupplyAirTemperature,                   !- Zone Heating Design Supply Air Temperature Input Method
  40,                                     !- Zone Heating Design Supply Air Temperature {C}
  11.11,                                  !- Zone Heating Design Supply Air Temperature Difference {deltaC}
  0.0085,                                 !- Zone Cooling Design Supply Air Humidity Ratio {kg-H2O/kg-air}
  0.008,                                  !- Zone Heating Design Supply Air Humidity Ratio {kg-H2O/kg-air}
  ,                                       !- Zone Heating Sizing Factor
  ,                                       !- Zone Cooling Sizing Factor
  DesignDay,                              !- Cooling Design Air Flow Method
  ,                                       !- Cooling Design Air Flow Rate {m3/s}
  ,                                       !- Cooling Minimum Air Flow per Zone Floor Area {m3/s-m2}
  ,                                       !- Cooling Minimum Air Flow {m3/s}
  ,                                       !- Cooling Minimum Air Flow Fraction
  DesignDay,                              !- Heating Design Air Flow Method
  ,                                       !- Heating Design Air Flow Rate {m3/s}
  ,                                       !- Heating Maximum Air Flow per Zone Floor Area {m3/s-m2}
  ,                                       !- Heating Maximum Air Flow {m3/s}
  ,                                       !- Heating Maximum Air Flow Fraction
  ,                                       !- Design Zone Air Distribution Effectiveness in Cooling Mode
  ,                                       !- Design Zone Air Distribution Effectiveness in Heating Mode
  No,                                     !- Account for Dedicated Outdoor Air System
  NeutralSupplyAir,                       !- Dedicated Outdoor Air System Control Strategy
  autosize,                               !- Dedicated Outdoor Air Low Setpoint Temperature for Design {C}
  autosize;                               !- Dedicated Outdoor Air High Setpoint Temperature for Design {C}

OS:ZoneHVAC:EquipmentList,
  {65653589-25c3-4407-a5b9-64080aa90a67}, !- Handle
  Zone HVAC Equipment List 2,             !- Name
  {03afce77-59a6-4984-a58a-f7a4dd84f0d3}; !- Thermal Zone

OS:Space,
  {f700ec1b-5315-4361-910d-6fb2cc1f16cc}, !- Handle
  garage space,                           !- Name
  {dfdb7c0d-0479-492f-bd46-54598989b327}, !- Space Type Name
  ,                                       !- Default Construction Set Name
  ,                                       !- Default Schedule Set Name
  -0,                                     !- Direction of Relative North {deg}
  0,                                      !- X Origin {m}
  0,                                      !- Y Origin {m}
  0,                                      !- Z Origin {m}
  ,                                       !- Building Story Name
  {03afce77-59a6-4984-a58a-f7a4dd84f0d3}; !- Thermal Zone Name

OS:Surface,
  {53f90959-098c-43af-8ed5-c7f2db3611c3}, !- Handle
  Surface 1,                              !- Name
  Floor,                                  !- Surface Type
  {9cd111f1-95da-42b4-bb36-79f7226a0805}, !- Construction Name
  {f700ec1b-5315-4361-910d-6fb2cc1f16cc}, !- Space Name
  Foundation,                             !- Outside Boundary Condition
  {12c9b145-a315-4d94-b755-eff543fa7c25}, !- Outside Boundary Condition Object
  NoSun,                                  !- Sun Exposure
  NoWind,                                 !- Wind Exposure
  ,                                       !- View Factor to Ground
  ,                                       !- Number of Vertices
  10.1737390518778, -3.6576, 0,           !- X,Y,Z Vertex 1 {m}
  10.1737390518778, 3.6576, 0,            !- X,Y,Z Vertex 2 {m}
  13.8313390518778, 3.6576, 0,            !- X,Y,Z Vertex 3 {m}
  13.8313390518778, -3.6576, 0;           !- X,Y,Z Vertex 4 {m}

OS:Surface,
  {c45a132a-7da9-4374-bb04-b3f9921516fa}, !- Handle
  Surface 2,                              !- Name
  Wall,                                   !- Surface Type
  {07b1a9cf-7264-4c02-b917-dd80e2c7d3ba}, !- Construction Name
  {f700ec1b-5315-4361-910d-6fb2cc1f16cc}, !- Space Name
  Surface,                                !- Outside Boundary Condition
  {c05410b5-39d2-4312-aadc-573473cdba04}, !- Outside Boundary Condition Object
  NoSun,                                  !- Sun Exposure
  NoWind,                                 !- Wind Exposure
  ,                                       !- View Factor to Ground
  ,                                       !- Number of Vertices
  10.1737390518778, 3.6576, 2.4384,       !- X,Y,Z Vertex 1 {m}
  10.1737390518778, 3.6576, 0,            !- X,Y,Z Vertex 2 {m}
  10.1737390518778, 0, 0,                 !- X,Y,Z Vertex 3 {m}
  10.1737390518778, 0, 2.4384;            !- X,Y,Z Vertex 4 {m}

OS:Surface,
  {ce948b0d-1e1a-4fe5-bd59-30c2087571fc}, !- Handle
  Surface 3,                              !- Name
  Wall,                                   !- Surface Type
  {07b1a9cf-7264-4c02-b917-dd80e2c7d3ba}, !- Construction Name
  {f700ec1b-5315-4361-910d-6fb2cc1f16cc}, !- Space Name
  Surface,                                !- Outside Boundary Condition
  {edb3f7e5-08f6-43fd-ba6c-e6f7e8616737}, !- Outside Boundary Condition Object
  NoSun,                                  !- Sun Exposure
  NoWind,                                 !- Wind Exposure
  ,                                       !- View Factor to Ground
  ,                                       !- Number of Vertices
  13.8313390518778, 3.6576, 2.4384,       !- X,Y,Z Vertex 1 {m}
  13.8313390518778, 3.6576, 0,            !- X,Y,Z Vertex 2 {m}
  10.1737390518778, 3.6576, 0,            !- X,Y,Z Vertex 3 {m}
  10.1737390518778, 3.6576, 2.4384;       !- X,Y,Z Vertex 4 {m}

OS:Surface,
  {1b24bdf9-bc43-49bf-a4e6-6c7eabb9f2f8}, !- Handle
  Surface 4,                              !- Name
  Wall,                                   !- Surface Type
  {5b8f5657-b09c-48fb-9b9f-986f64809165}, !- Construction Name
  {f700ec1b-5315-4361-910d-6fb2cc1f16cc}, !- Space Name
  Outdoors,                               !- Outside Boundary Condition
  ,                                       !- Outside Boundary Condition Object
  SunExposed,                             !- Sun Exposure
  WindExposed,                            !- Wind Exposure
  ,                                       !- View Factor to Ground
  ,                                       !- Number of Vertices
  13.8313390518778, -3.6576, 2.4384,      !- X,Y,Z Vertex 1 {m}
  13.8313390518778, -3.6576, 0,           !- X,Y,Z Vertex 2 {m}
  13.8313390518778, 3.6576, 0,            !- X,Y,Z Vertex 3 {m}
  13.8313390518778, 3.6576, 2.4384;       !- X,Y,Z Vertex 4 {m}

OS:Surface,