!- NOTE: Auto-generated from /test/osw_files/SFD_HVACSizing_Equip_GF_RAC_Fixed.osw

OS:Version,
  {513977d4-0299-4000-8a4e-b2be3e5aafdf}, !- Handle
  2.8.0;                                  !- Version Identifier

OS:SimulationControl,
  {ce051a0a-9528-4b47-8968-4973817aef39}, !- Handle
  ,                                       !- Do Zone Sizing Calculation
  ,                                       !- Do System Sizing Calculation
  ,                                       !- Do Plant Sizing Calculation
  No;                                     !- Run Simulation for Sizing Periods

OS:Timestep,
  {ef1119f3-b154-4cfe-8187-c0bef7a57ecc}, !- Handle
  6;                                      !- Number of Timesteps per Hour

OS:ShadowCalculation,
  {6fb12852-9411-4326-9020-f3b74e1c0313}, !- Handle
  20,                                     !- Calculation Frequency
  200;                                    !- Maximum Figures in Shadow Overlap Calculations

OS:SurfaceConvectionAlgorithm:Outside,
  {070174f6-7ee5-4e87-8fdc-ac100d2149b3}, !- Handle
  DOE-2;                                  !- Algorithm

OS:SurfaceConvectionAlgorithm:Inside,
  {42438a2a-be8c-4e59-b205-af587b3a2258}, !- Handle
  TARP;                                   !- Algorithm

OS:ZoneCapacitanceMultiplier:ResearchSpecial,
  {8bf6d68d-575a-4e4b-9c2c-dd6b69a4cec7}, !- Handle
  ,                                       !- Temperature Capacity Multiplier
  15,                                     !- Humidity Capacity Multiplier
  ;                                       !- Carbon Dioxide Capacity Multiplier

OS:RunPeriod,
  {a8c98cf5-aca7-4f75-8008-6e1846e41535}, !- Handle
  Run Period 1,                           !- Name
  1,                                      !- Begin Month
  1,                                      !- Begin Day of Month
  12,                                     !- End Month
  31,                                     !- End Day of Month
  ,                                       !- Use Weather File Holidays and Special Days
  ,                                       !- Use Weather File Daylight Saving Period
  ,                                       !- Apply Weekend Holiday Rule
  ,                                       !- Use Weather File Rain Indicators
  ,                                       !- Use Weather File Snow Indicators
  ;                                       !- Number of Times Runperiod to be Repeated

OS:WeatherFile,
  {a1a601ce-0392-4e5b-9bee-e2dd5517845a}, !- Handle
  Denver Intl Ap,                         !- City
  CO,                                     !- State Province Region
  USA,                                    !- Country
  TMY3,                                   !- Data Source
  725650,                                 !- WMO Number
  39.83,                                  !- Latitude {deg}
  -104.65,                                !- Longitude {deg}
  -7,                                     !- Time Zone {hr}
  1650,                                   !- Elevation {m}
  file:../weather/USA_CO_Denver.Intl.AP.725650_TMY3.epw, !- Url
  E23378AA;                               !- Checksum

OS:AdditionalProperties,
  {34282ad2-746e-4845-ad8a-75771858a211}, !- Handle
  {a1a601ce-0392-4e5b-9bee-e2dd5517845a}, !- Object Name
  EPWHeaderCity,                          !- Feature Name 1
  String,                                 !- Feature Data Type 1
  Denver Intl Ap,                         !- Feature Value 1
  EPWHeaderState,                         !- Feature Name 2
  String,                                 !- Feature Data Type 2
  CO,                                     !- Feature Value 2
  EPWHeaderCountry,                       !- Feature Name 3
  String,                                 !- Feature Data Type 3
  USA,                                    !- Feature Value 3
  EPWHeaderDataSource,                    !- Feature Name 4
  String,                                 !- Feature Data Type 4
  TMY3,                                   !- Feature Value 4
  EPWHeaderStation,                       !- Feature Name 5
  String,                                 !- Feature Data Type 5
  725650,                                 !- Feature Value 5
  EPWHeaderLatitude,                      !- Feature Name 6
  Double,                                 !- Feature Data Type 6
  39.829999999999998,                     !- Feature Value 6
  EPWHeaderLongitude,                     !- Feature Name 7
  Double,                                 !- Feature Data Type 7
  -104.65000000000001,                    !- Feature Value 7
  EPWHeaderTimezone,                      !- Feature Name 8
  Double,                                 !- Feature Data Type 8
  -7,                                     !- Feature Value 8
  EPWHeaderAltitude,                      !- Feature Name 9
  Double,                                 !- Feature Data Type 9
  5413.3858267716532,                     !- Feature Value 9
  EPWHeaderLocalPressure,                 !- Feature Name 10
  Double,                                 !- Feature Data Type 10
  0.81937567683596546,                    !- Feature Value 10
  EPWHeaderRecordsPerHour,                !- Feature Name 11
  Double,                                 !- Feature Data Type 11
  0,                                      !- Feature Value 11
  EPWDataAnnualAvgDrybulb,                !- Feature Name 12
  Double,                                 !- Feature Data Type 12
  51.575616438356228,                     !- Feature Value 12
  EPWDataAnnualMinDrybulb,                !- Feature Name 13
  Double,                                 !- Feature Data Type 13
  -2.9200000000000017,                    !- Feature Value 13
  EPWDataAnnualMaxDrybulb,                !- Feature Name 14
  Double,                                 !- Feature Data Type 14
  104,                                    !- Feature Value 14
  EPWDataCDD50F,                          !- Feature Name 15
  Double,                                 !- Feature Data Type 15
  3072.2925000000005,                     !- Feature Value 15
  EPWDataCDD65F,                          !- Feature Name 16
  Double,                                 !- Feature Data Type 16
  883.62000000000035,                     !- Feature Value 16
  EPWDataHDD50F,                          !- Feature Name 17
  Double,                                 !- Feature Data Type 17
  2497.1925000000001,                     !- Feature Value 17
  EPWDataHDD65F,                          !- Feature Name 18
  Double,                                 !- Feature Data Type 18
  5783.5200000000013,                     !- Feature Value 18
  EPWDataAnnualAvgWindspeed,              !- Feature Name 19
  Double,                                 !- Feature Data Type 19
  3.9165296803649667,                     !- Feature Value 19
  EPWDataMonthlyAvgDrybulbs,              !- Feature Name 20
  String,                                 !- Feature Data Type 20
  33.4191935483871&#4431.90142857142857&#4443.02620967741937&#4442.48624999999999&#4459.877741935483854&#4473.57574999999997&#4472.07975806451608&#4472.70008064516134&#4466.49200000000006&#4450.079112903225806&#4437.218250000000005&#4434.582177419354835, !- Feature Value 20
  EPWDataGroundMonthlyTemps,              !- Feature Name 21
  String,                                 !- Feature Data Type 21
  44.08306285945173&#4440.89570904991865&#4440.64045432632048&#4442.153016571250646&#4448.225111118704206&#4454.268919273837525&#4459.508577937551024&#4462.82777283423508&#4463.10975667174995&#4460.41014950381947&#4455.304105212311526&#4449.445696474514364, !- Feature Value 21
  EPWDataWSF,                             !- Feature Name 22
  Double,                                 !- Feature Data Type 22
  0.58999999999999997,                    !- Feature Value 22
  EPWDataMonthlyAvgDailyHighDrybulbs,     !- Feature Name 23
  String,                                 !- Feature Data Type 23
  47.41032258064516&#4446.58642857142857&#4455.15032258064517&#4453.708&#4472.80193548387098&#4488.67600000000002&#4486.1858064516129&#4485.87225806451613&#4482.082&#4463.18064516129033&#4448.73400000000001&#4448.87935483870968, !- Feature Value 23
  EPWDataMonthlyAvgDailyLowDrybulbs,      !- Feature Name 24
  String,                                 !- Feature Data Type 24
  19.347741935483874&#4419.856428571428573&#4430.316129032258065&#4431.112&#4447.41612903225806&#4457.901999999999994&#4459.063870967741934&#4460.956774193548384&#4452.352000000000004&#4438.41612903225806&#4427.002000000000002&#4423.02903225806451, !- Feature Value 24
  EPWDesignHeatingDrybulb,                !- Feature Name 25
  Double,                                 !- Feature Data Type 25
  12.02,                                  !- Feature Value 25
  EPWDesignHeatingWindspeed,              !- Feature Name 26
  Double,                                 !- Feature Data Type 26
  2.8062500000000004,                     !- Feature Value 26
  EPWDesignCoolingDrybulb,                !- Feature Name 27
  Double,                                 !- Feature Data Type 27
  91.939999999999998,                     !- Feature Value 27
  EPWDesignCoolingWetbulb,                !- Feature Name 28
  Double,                                 !- Feature Data Type 28
  59.95131430195849,                      !- Feature Value 28
  EPWDesignCoolingHumidityRatio,          !- Feature Name 29
  Double,                                 !- Feature Data Type 29
  0.0059161086834698092,                  !- Feature Value 29
  EPWDesignCoolingWindspeed,              !- Feature Name 30
  Double,                                 !- Feature Data Type 30
  3.7999999999999989,                     !- Feature Value 30
  EPWDesignDailyTemperatureRange,         !- Feature Name 31
  Double,                                 !- Feature Data Type 31
  24.915483870967748,                     !- Feature Value 31
  EPWDesignDehumidDrybulb,                !- Feature Name 32
  Double,                                 !- Feature Data Type 32
  67.996785714285721,                     !- Feature Value 32
  EPWDesignDehumidHumidityRatio,          !- Feature Name 33
  Double,                                 !- Feature Data Type 33
  0.012133744170488724,                   !- Feature Value 33
  EPWDesignCoolingDirectNormal,           !- Feature Name 34
  Double,                                 !- Feature Data Type 34
  985,                                    !- Feature Value 34
  EPWDesignCoolingDiffuseHorizontal,      !- Feature Name 35
  Double,                                 !- Feature Data Type 35
  84;                                     !- Feature Value 35

OS:YearDescription,
  {02b09b01-571e-43ed-b54a-77a5cf8956b1}, !- Handle
  ,                                       !- Calendar Year
  Monday;                                 !- Day of Week for Start Day

OS:Site,
  {bb432546-f8af-4bcf-8129-54758d72c925}, !- Handle
  Denver Intl Ap_CO_USA,                  !- Name
  39.83,                                  !- Latitude {deg}
  -104.65,                                !- Longitude {deg}
  -7,                                     !- Time Zone {hr}
  1650,                                   !- Elevation {m}
  Suburbs;                                !- Terrain

OS:ClimateZones,
  {1f8b2661-c7c4-46ce-9396-f751e3e36c0c}, !- Handle
  ,                                       !- Active Institution
  ,                                       !- Active Year
  ,                                       !- Climate Zone Institution Name 1
  ,                                       !- Climate Zone Document Name 1
  ,                                       !- Climate Zone Document Year 1
  ,                                       !- Climate Zone Value 1
  Building America,                       !- Climate Zone Institution Name 2
  ,                                       !- Climate Zone Document Name 2
  0,                                      !- Climate Zone Document Year 2
  Cold;                                   !- Climate Zone Value 2

OS:Site:WaterMainsTemperature,
  {b3d1cd9a-5c40-479a-ad4b-e6e69f857288}, !- Handle
  Correlation,                            !- Calculation Method
  ,                                       !- Temperature Schedule Name
  10.8753424657535,                       !- Annual Average Outdoor Air Temperature {C}
  23.1524007936508;                       !- Maximum Difference In Monthly Average Outdoor Air Temperatures {deltaC}

OS:RunPeriodControl:DaylightSavingTime,
  {86f70e07-c7b8-41ac-a61e-7b1dcfd7fd8b}, !- Handle
  4/7,                                    !- Start Date
  10/26;                                  !- End Date

OS:Site:GroundTemperature:Deep,
  {659365a4-2fa3-4eb9-894b-7b44da89c585}, !- Handle
  10.8753424657535,                       !- January Deep Ground Temperature {C}
  10.8753424657535,                       !- February Deep Ground Temperature {C}
  10.8753424657535,                       !- March Deep Ground Temperature {C}
  10.8753424657535,                       !- April Deep Ground Temperature {C}
  10.8753424657535,                       !- May Deep Ground Temperature {C}
  10.8753424657535,                       !- June Deep Ground Temperature {C}
  10.8753424657535,                       !- July Deep Ground Temperature {C}
  10.8753424657535,                       !- August Deep Ground Temperature {C}
  10.8753424657535,                       !- September Deep Ground Temperature {C}
  10.8753424657535,                       !- October Deep Ground Temperature {C}
  10.8753424657535,                       !- November Deep Ground Temperature {C}
  10.8753424657535;                       !- December Deep Ground Temperature {C}

OS:ThermalZone,
  {10f4b5fc-3d44-418e-84cf-1c5b89b83a77}, !- Handle
  living zone,                            !- Name
  ,                                       !- Multiplier
  ,                                       !- Ceiling Height {m}
  ,                                       !- Volume {m3}
  ,                                       !- Floor Area {m2}
  ,                                       !- Zone Inside Convection Algorithm
  ,                                       !- Zone Outside Convection Algorithm
  ,                                       !- Zone Conditioning Equipment List Name
  {ca751bbd-af15-477e-951c-f784d2d66231}, !- Zone Air Inlet Port List
  {7fec30d0-b277-44da-8a76-0da2192b2e4b}, !- Zone Air Exhaust Port List
  {9e171ffb-b9d1-4657-9de4-27d245cf0e91}, !- Zone Air Node Name
  {f9a24327-2a62-47be-9d6a-03713054219e}, !- Zone Return Air Port List
  ,                                       !- Primary Daylighting Control Name
  ,                                       !- Fraction of Zone Controlled by Primary Daylighting Control
  ,                                       !- Secondary Daylighting Control Name
  ,                                       !- Fraction of Zone Controlled by Secondary Daylighting Control
  ,                                       !- Illuminance Map Name
  ,                                       !- Group Rendering Name
  {6126a7b4-468b-4356-8b66-94595054b462}, !- Thermostat Name
  No;                                     !- Use Ideal Air Loads

OS:Node,
  {29106722-83f2-4de3-8ba4-4a65f65d86fb}, !- Handle
  Node 1,                                 !- Name
  {9e171ffb-b9d1-4657-9de4-27d245cf0e91}, !- Inlet Port
  ;                                       !- Outlet Port

OS:Connection,
  {9e171ffb-b9d1-4657-9de4-27d245cf0e91}, !- Handle
  {de370a0d-cf43-471d-8bc3-1aa6230afe5f}, !- Name
  {10f4b5fc-3d44-418e-84cf-1c5b89b83a77}, !- Source Object
  11,                                     !- Outlet Port
  {29106722-83f2-4de3-8ba4-4a65f65d86fb}, !- Target Object
  2;                                      !- Inlet Port

OS:PortList,
  {ca751bbd-af15-477e-951c-f784d2d66231}, !- Handle
  {24188f23-a10d-46ab-8727-fb13aa9a1b04}, !- Name
  {10f4b5fc-3d44-418e-84cf-1c5b89b83a77}, !- HVAC Component
  {5e550016-dd6b-4e29-8aed-125c9e2a2452}, !- Port 1
  {5447c789-a4f4-4297-a888-9c5fa2825256}; !- Port 2

OS:PortList,
  {7fec30d0-b277-44da-8a76-0da2192b2e4b}, !- Handle
  {1f0f943d-7f5f-4328-8ca1-7fb16c3ae8ac}, !- Name
  {10f4b5fc-3d44-418e-84cf-1c5b89b83a77}, !- HVAC Component
  {76997800-9ac1-4b40-a24d-137216666855}; !- Port 1

OS:PortList,
  {f9a24327-2a62-47be-9d6a-03713054219e}, !- Handle
  {3e56b13c-2464-474f-b557-1857488d9a0c}, !- Name
  {10f4b5fc-3d44-418e-84cf-1c5b89b83a77}, !- HVAC Component
  {58e18094-5b57-4e19-9b10-0f75da5a1d84}; !- Port 1

OS:Sizing:Zone,
  {3453f672-561c-4cd4-9a8e-07069a2e0049}, !- Handle
  {10f4b5fc-3d44-418e-84cf-1c5b89b83a77}, !- Zone or ZoneList Name
  SupplyAirTemperature,                   !- Zone Cooling Design Supply Air Temperature Input Method
  14,                                     !- Zone Cooling Design Supply Air Temperature {C}
  11.11,                                  !- Zone Cooling Design Supply Air Temperature Difference {deltaC}
  SupplyAirTemperature,                   !- Zone Heating Design Supply Air Temperature Input Method
  40,                                     !- Zone Heating Design Supply Air Temperature {C}
  11.11,                                  !- Zone Heating Design Supply Air Temperature Difference {deltaC}
  0.0085,                                 !- Zone Cooling Design Supply Air Humidity Ratio {kg-H2O/kg-air}
  0.008,                                  !- Zone Heating Design Supply Air Humidity Ratio {kg-H2O/kg-air}
  ,                                       !- Zone Heating Sizing Factor
  ,                                       !- Zone Cooling Sizing Factor
  DesignDay,                              !- Cooling Design Air Flow Method
  ,                                       !- Cooling Design Air Flow Rate {m3/s}
  ,                                       !- Cooling Minimum Air Flow per Zone Floor Area {m3/s-m2}
  ,                                       !- Cooling Minimum Air Flow {m3/s}
  ,                                       !- Cooling Minimum Air Flow Fraction
  DesignDay,                              !- Heating Design Air Flow Method
  ,                                       !- Heating Design Air Flow Rate {m3/s}
  ,                                       !- Heating Maximum Air Flow per Zone Floor Area {m3/s-m2}
  ,                                       !- Heating Maximum Air Flow {m3/s}
  ,                                       !- Heating Maximum Air Flow Fraction
  ,                                       !- Design Zone Air Distribution Effectiveness in Cooling Mode
  ,                                       !- Design Zone Air Distribution Effectiveness in Heating Mode
  No,                                     !- Account for Dedicated Outdoor Air System
  NeutralSupplyAir,                       !- Dedicated Outdoor Air System Control Strategy
  autosize,                               !- Dedicated Outdoor Air Low Setpoint Temperature for Design {C}
  autosize;                               !- Dedicated Outdoor Air High Setpoint Temperature for Design {C}

OS:ZoneHVAC:EquipmentList,
  {aae4dd47-c218-42a7-8dd8-76b4e75a2bd2}, !- Handle
  Zone HVAC Equipment List 1,             !- Name
  {10f4b5fc-3d44-418e-84cf-1c5b89b83a77}, !- Thermal Zone
  SequentialLoad,                         !- Load Distribution Scheme
  {074dad25-e3eb-4a9a-8bcb-0abe815c5c0c}, !- Zone Equipment 1
  1,                                      !- Zone Equipment Cooling Sequence 1
  1,                                      !- Zone Equipment Heating or No-Load Sequence 1
  ,                                       !- Zone Equipment Sequential Cooling Fraction 1
  ,                                       !- Zone Equipment Sequential Heating Fraction 1
  {7920c714-635d-437f-8232-2221c956039f}, !- Zone Equipment 2
  2,                                      !- Zone Equipment Cooling Sequence 2
  2,                                      !- Zone Equipment Heating or No-Load Sequence 2
  ,                                       !- Zone Equipment Sequential Cooling Fraction 2
  ;                                       !- Zone Equipment Sequential Heating Fraction 2

OS:ThermalZone,
  {3f98a173-0e91-4c18-b47b-c3c6d12c8f4b}, !- Handle
  garage zone,                            !- Name
  ,                                       !- Multiplier
  ,                                       !- Ceiling Height {m}
  ,                                       !- Volume {m3}
  ,                                       !- Floor Area {m2}
  ,                                       !- Zone Inside Convection Algorithm
  ,                                       !- Zone Outside Convection Algorithm
  ,                                       !- Zone Conditioning Equipment List Name
  {1e19d342-1d11-4970-ad3d-943455fac0c4}, !- Zone Air Inlet Port List
  {50cee923-0904-4ecc-b910-7e93b32016c9}, !- Zone Air Exhaust Port List
  {b66d609a-31a8-4666-a4f0-7efc7b37cf67}, !- Zone Air Node Name
  {8461ffe4-6d13-4528-9754-2933caf33326}, !- Zone Return Air Port List
  ,                                       !- Primary Daylighting Control Name
  ,                                       !- Fraction of Zone Controlled by Primary Daylighting Control
  ,                                       !- Secondary Daylighting Control Name
  ,                                       !- Fraction of Zone Controlled by Secondary Daylighting Control
  ,                                       !- Illuminance Map Name
  ,                                       !- Group Rendering Name
  ,                                       !- Thermostat Name
  No;                                     !- Use Ideal Air Loads

OS:Node,
  {8fa8b6bd-f298-4eff-ab98-8ff14dd69a10}, !- Handle
  Node 2,                                 !- Name
  {b66d609a-31a8-4666-a4f0-7efc7b37cf67}, !- Inlet Port
  ;                                       !- Outlet Port

OS:Connection,
  {b66d609a-31a8-4666-a4f0-7efc7b37cf67}, !- Handle
  {7c8e152b-8062-4654-8219-a531d69e081c}, !- Name
  {3f98a173-0e91-4c18-b47b-c3c6d12c8f4b}, !- Source Object
  11,                                     !- Outlet Port
  {8fa8b6bd-f298-4eff-ab98-8ff14dd69a10}, !- Target Object
  2;                                      !- Inlet Port

OS:PortList,
  {1e19d342-1d11-4970-ad3d-943455fac0c4}, !- Handle
  {9be96caf-9c47-40bb-84a7-8b397854e755}, !- Name
  {3f98a173-0e91-4c18-b47b-c3c6d12c8f4b}; !- HVAC Component

OS:PortList,
  {50cee923-0904-4ecc-b910-7e93b32016c9}, !- Handle
  {d2f8738c-3cc1-4b8b-95d8-c958ff15a5e7}, !- Name
  {3f98a173-0e91-4c18-b47b-c3c6d12c8f4b}; !- HVAC Component

OS:PortList,
  {8461ffe4-6d13-4528-9754-2933caf33326}, !- Handle
  {c5635ef9-c0fa-436b-8885-52257a03ee81}, !- Name
  {3f98a173-0e91-4c18-b47b-c3c6d12c8f4b}; !- HVAC Component

OS:Sizing:Zone,
  {32d2d083-c915-4d82-8a35-1b1e02347fe0}, !- Handle
  {3f98a173-0e91-4c18-b47b-c3c6d12c8f4b}, !- Zone or ZoneList Name
  SupplyAirTemperature,                   !- Zone Cooling Design Supply Air Temperature Input Method
  14,                                     !- Zone Cooling Design Supply Air Temperature {C}
  11.11,                                  !- Zone Cooling Design Supply Air Temperature Difference {deltaC}
  SupplyAirTemperature,                   !- Zone Heating Design Supply Air Temperature Input Method
  40,                                     !- Zone Heating Design Supply Air Temperature {C}
  11.11,                                  !- Zone Heating Design Supply Air Temperature Difference {deltaC}
  0.0085,                                 !- Zone Cooling Design Supply Air Humidity Ratio {kg-H2O/kg-air}
  0.008,                                  !- Zone Heating Design Supply Air Humidity Ratio {kg-H2O/kg-air}
  ,                                       !- Zone Heating Sizing Factor
  ,                                       !- Zone Cooling Sizing Factor
  DesignDay,                              !- Cooling Design Air Flow Method
  ,                                       !- Cooling Design Air Flow Rate {m3/s}
  ,                                       !- Cooling Minimum Air Flow per Zone Floor Area {m3/s-m2}
  ,                                       !- Cooling Minimum Air Flow {m3/s}
  ,                                       !- Cooling Minimum Air Flow Fraction
  DesignDay,                              !- Heating Design Air Flow Method
  ,                                       !- Heating Design Air Flow Rate {m3/s}
  ,                                       !- Heating Maximum Air Flow per Zone Floor Area {m3/s-m2}
  ,                                       !- Heating Maximum Air Flow {m3/s}
  ,                                       !- Heating Maximum Air Flow Fraction
  ,                                       !- Design Zone Air Distribution Effectiveness in Cooling Mode
  ,                                       !- Design Zone Air Distribution Effectiveness in Heating Mode
  No,                                     !- Account for Dedicated Outdoor Air System
  NeutralSupplyAir,                       !- Dedicated Outdoor Air System Control Strategy
  autosize,                               !- Dedicated Outdoor Air Low Setpoint Temperature for Design {C}
  autosize;                               !- Dedicated Outdoor Air High Setpoint Temperature for Design {C}

OS:ZoneHVAC:EquipmentList,
  {a8439cf2-2889-4a20-b5a8-5bbf20a28fc2}, !- Handle
  Zone HVAC Equipment List 2,             !- Name
  {3f98a173-0e91-4c18-b47b-c3c6d12c8f4b}; !- Thermal Zone

OS:Space,
  {5d2cd957-e741-444d-bfc4-3cbebf9d05ec}, !- Handle
  garage space,                           !- Name
  {a33612e2-b774-4c2a-91fb-2c56ce6ea657}, !- Space Type Name
  ,                                       !- Default Construction Set Name
  ,                                       !- Default Schedule Set Name
  -0,                                     !- Direction of Relative North {deg}
  0,                                      !- X Origin {m}
  0,                                      !- Y Origin {m}
  0,                                      !- Z Origin {m}
  ,                                       !- Building Story Name
  {3f98a173-0e91-4c18-b47b-c3c6d12c8f4b}; !- Thermal Zone Name

OS:Surface,
  {6984eaf7-5c11-4ad3-8b72-e144dd3a491d}, !- Handle
  Surface 1,                              !- Name
  Floor,                                  !- Surface Type
  {b30a9114-84e2-45ad-90d8-c2247369f397}, !- Construction Name
  {5d2cd957-e741-444d-bfc4-3cbebf9d05ec}, !- Space Name
  Foundation,                             !- Outside Boundary Condition
  {333525b0-9827-4a46-b962-433d9f682d26}, !- Outside Boundary Condition Object
  NoSun,                                  !- Sun Exposure
  NoWind,                                 !- Wind Exposure
  ,                                       !- View Factor to Ground
  ,                                       !- Number of Vertices
  8.91701625975123, -3.048, 0,            !- X,Y,Z Vertex 1 {m}
  8.91701625975123, 3.048, 0,             !- X,Y,Z Vertex 2 {m}
  12.5746162597512, 3.048, 0,             !- X,Y,Z Vertex 3 {m}
  12.5746162597512, -3.048, 0;            !- X,Y,Z Vertex 4 {m}

OS:Surface,
  {3a8a4bfe-2e7d-4262-96ac-a860c9462df2}, !- Handle
  Surface 2,                              !- Name
  Wall,                                   !- Surface Type
  {ed3c9b8e-ca3c-4ed6-978e-43fb43b81c5a}, !- Construction Name
  {5d2cd957-e741-444d-bfc4-3cbebf9d05ec}, !- Space Name
  Surface,                                !- Outside Boundary Condition
  {b2951890-07be-4761-9a2b-bf62ab71ae7e}, !- Outside Boundary Condition Object
  NoSun,                                  !- Sun Exposure
  NoWind,                                 !- Wind Exposure
  ,                                       !- View Factor to Ground
  ,                                       !- Number of Vertices
  8.91701625975123, 3.048, 2.4384,        !- X,Y,Z Vertex 1 {m}
  8.91701625975123, 3.048, 0,             !- X,Y,Z Vertex 2 {m}
  8.91701625975123, 0, 0,                 !- X,Y,Z Vertex 3 {m}
  8.91701625975123, 0, 2.4384;            !- X,Y,Z Vertex 4 {m}

OS:Surface,
  {b6f9743a-58b2-4b35-b3f1-22482298d3f2}, !- Handle
  Surface 3,                              !- Name
  Wall,                                   !- Surface Type
  {ed3c9b8e-ca3c-4ed6-978e-43fb43b81c5a}, !- Construction Name
  {5d2cd957-e741-444d-bfc4-3cbebf9d05ec}, !- Space Name
  Surface,                                !- Outside Boundary Condition
  {7ab6dab6-d95e-40e7-b569-d33f88dbf6ac}, !- Outside Boundary Condition Object
  NoSun,                                  !- Sun Exposure
  NoWind,                                 !- Wind Exposure
  ,                                       !- View Factor to Ground
  ,                                       !- Number of Vertices
  12.5746162597512, 3.048, 2.4384,        !- X,Y,Z Vertex 1 {m}
  12.5746162597512, 3.048, 0,             !- X,Y,Z Vertex 2 {m}
  8.91701625975123, 3.048, 0,             !- X,Y,Z Vertex 3 {m}
  8.91701625975123, 3.048, 2.4384;        !- X,Y,Z Vertex 4 {m}

OS:Surface,
  {47757383-53c2-49ea-9592-5dd15ee3c479}, !- Handle
  Surface 4,                              !- Name
  Wall,                                   !- Surface Type
  {29f02342-bb4c-4b3b-9d42-5bf46c19834b}, !- Construction Name
  {5d2cd957-e741-444d-bfc4-3cbebf9d05ec}, !- Space Name
  Outdoors,                               !- Outside Boundary Condition
  ,                                       !- Outside Boundary Condition Object
  SunExposed,                             !- Sun Exposure
  WindExposed,                            !- Wind Exposure
  ,                                       !- View Factor to Ground
  ,                                       !- Number of Vertices
  12.5746162597512, -3.048, 2.4384,       !- X,Y,Z Vertex 1 {m}
  12.5746162597512, -3.048, 0,            !- X,Y,Z Vertex 2 {m}
  12.5746162597512, 3.048, 0,             !- X,Y,Z Vertex 3 {m}
  12.5746162597512, 3.048, 2.4384;        !- X,Y,Z Vertex 4 {m}

OS:Surface,