!- NOTE: Auto-generated from /test/osw_files/SFD_HVACSizing_Equip_MSHP_Autosize.osw

OS:Version,
  {d5af1a7f-aa79-44c3-8f62-3ac25e922ebb}, !- Handle
  2.8.1;                                  !- Version Identifier

OS:SimulationControl,
  {2df49497-b493-47ca-9b0a-71892e66da17}, !- Handle
  ,                                       !- Do Zone Sizing Calculation
  ,                                       !- Do System Sizing Calculation
  ,                                       !- Do Plant Sizing Calculation
  No;                                     !- Run Simulation for Sizing Periods

OS:Timestep,
  {17477979-f82d-41ab-b121-3193d832bab8}, !- Handle
  6;                                      !- Number of Timesteps per Hour

OS:ShadowCalculation,
  {12efc33e-3b17-4128-95bc-3502679322db}, !- Handle
  20,                                     !- Calculation Frequency
  200;                                    !- Maximum Figures in Shadow Overlap Calculations

OS:SurfaceConvectionAlgorithm:Outside,
  {33f663b4-ef71-40b6-8482-44fa4afc1419}, !- Handle
  DOE-2;                                  !- Algorithm

OS:SurfaceConvectionAlgorithm:Inside,
  {51605e8f-fb9a-43ae-94e1-981ad8c9b6d7}, !- Handle
  TARP;                                   !- Algorithm

OS:ZoneCapacitanceMultiplier:ResearchSpecial,
  {ef0583a9-0a21-47cd-bdde-6d0bc44ce4ed}, !- Handle
  ,                                       !- Temperature Capacity Multiplier
  15,                                     !- Humidity Capacity Multiplier
  ;                                       !- Carbon Dioxide Capacity Multiplier

OS:RunPeriod,
  {f5b9a7c7-cf91-4fb7-aa46-efbbced47d08}, !- Handle
  Run Period 1,                           !- Name
  1,                                      !- Begin Month
  1,                                      !- Begin Day of Month
  12,                                     !- End Month
  31,                                     !- End Day of Month
  ,                                       !- Use Weather File Holidays and Special Days
  ,                                       !- Use Weather File Daylight Saving Period
  ,                                       !- Apply Weekend Holiday Rule
  ,                                       !- Use Weather File Rain Indicators
  ,                                       !- Use Weather File Snow Indicators
  ;                                       !- Number of Times Runperiod to be Repeated

OS:YearDescription,
  {c80c2748-916f-4f26-a79e-311438808c14}, !- Handle
  2007,                                   !- Calendar Year
  ,                                       !- Day of Week for Start Day
  ;                                       !- Is Leap Year

OS:WeatherFile,
  {1a544a4a-f8bb-4ae4-b7cc-6180ce5e1bce}, !- Handle
  Denver Intl Ap,                         !- City
  CO,                                     !- State Province Region
  USA,                                    !- Country
  TMY3,                                   !- Data Source
  725650,                                 !- WMO Number
  39.83,                                  !- Latitude {deg}
  -104.65,                                !- Longitude {deg}
  -7,                                     !- Time Zone {hr}
  1650,                                   !- Elevation {m}
  file:../weather/USA_CO_Denver.Intl.AP.725650_TMY3.epw, !- Url
  E23378AA;                               !- Checksum

OS:AdditionalProperties,
  {8ff89483-61ff-43b3-8eef-f9a2d2ef4f55}, !- Handle
  {1a544a4a-f8bb-4ae4-b7cc-6180ce5e1bce}, !- Object Name
  EPWHeaderCity,                          !- Feature Name 1
  String,                                 !- Feature Data Type 1
  Denver Intl Ap,                         !- Feature Value 1
  EPWHeaderState,                         !- Feature Name 2
  String,                                 !- Feature Data Type 2
  CO,                                     !- Feature Value 2
  EPWHeaderCountry,                       !- Feature Name 3
  String,                                 !- Feature Data Type 3
  USA,                                    !- Feature Value 3
  EPWHeaderDataSource,                    !- Feature Name 4
  String,                                 !- Feature Data Type 4
  TMY3,                                   !- Feature Value 4
  EPWHeaderStation,                       !- Feature Name 5
  String,                                 !- Feature Data Type 5
  725650,                                 !- Feature Value 5
  EPWHeaderLatitude,                      !- Feature Name 6
  Double,                                 !- Feature Data Type 6
  39.829999999999998,                     !- Feature Value 6
  EPWHeaderLongitude,                     !- Feature Name 7
  Double,                                 !- Feature Data Type 7
  -104.65000000000001,                    !- Feature Value 7
  EPWHeaderTimezone,                      !- Feature Name 8
  Double,                                 !- Feature Data Type 8
  -7,                                     !- Feature Value 8
  EPWHeaderAltitude,                      !- Feature Name 9
  Double,                                 !- Feature Data Type 9
  5413.3858267716532,                     !- Feature Value 9
  EPWHeaderLocalPressure,                 !- Feature Name 10
  Double,                                 !- Feature Data Type 10
  0.81937567683596546,                    !- Feature Value 10
  EPWHeaderRecordsPerHour,                !- Feature Name 11
  Double,                                 !- Feature Data Type 11
  0,                                      !- Feature Value 11
  EPWDataAnnualAvgDrybulb,                !- Feature Name 12
  Double,                                 !- Feature Data Type 12
  51.575616438356228,                     !- Feature Value 12
  EPWDataAnnualMinDrybulb,                !- Feature Name 13
  Double,                                 !- Feature Data Type 13
  -2.9200000000000017,                    !- Feature Value 13
  EPWDataAnnualMaxDrybulb,                !- Feature Name 14
  Double,                                 !- Feature Data Type 14
  104,                                    !- Feature Value 14
  EPWDataCDD50F,                          !- Feature Name 15
  Double,                                 !- Feature Data Type 15
  3072.2925000000005,                     !- Feature Value 15
  EPWDataCDD65F,                          !- Feature Name 16
  Double,                                 !- Feature Data Type 16
  883.62000000000035,                     !- Feature Value 16
  EPWDataHDD50F,                          !- Feature Name 17
  Double,                                 !- Feature Data Type 17
  2497.1925000000001,                     !- Feature Value 17
  EPWDataHDD65F,                          !- Feature Name 18
  Double,                                 !- Feature Data Type 18
  5783.5200000000013,                     !- Feature Value 18
  EPWDataAnnualAvgWindspeed,              !- Feature Name 19
  Double,                                 !- Feature Data Type 19
  3.9165296803649667,                     !- Feature Value 19
  EPWDataMonthlyAvgDrybulbs,              !- Feature Name 20
  String,                                 !- Feature Data Type 20
  33.4191935483871&#4431.90142857142857&#4443.02620967741937&#4442.48624999999999&#4459.877741935483854&#4473.57574999999997&#4472.07975806451608&#4472.70008064516134&#4466.49200000000006&#4450.079112903225806&#4437.218250000000005&#4434.582177419354835, !- Feature Value 20
  EPWDataGroundMonthlyTemps,              !- Feature Name 21
  String,                                 !- Feature Data Type 21
  44.08306285945173&#4440.89570904991865&#4440.64045432632048&#4442.153016571250646&#4448.225111118704206&#4454.268919273837525&#4459.508577937551024&#4462.82777283423508&#4463.10975667174995&#4460.41014950381947&#4455.304105212311526&#4449.445696474514364, !- Feature Value 21
  EPWDataWSF,                             !- Feature Name 22
  Double,                                 !- Feature Data Type 22
  0.58999999999999997,                    !- Feature Value 22
  EPWDataMonthlyAvgDailyHighDrybulbs,     !- Feature Name 23
  String,                                 !- Feature Data Type 23
  47.41032258064516&#4446.58642857142857&#4455.15032258064517&#4453.708&#4472.80193548387098&#4488.67600000000002&#4486.1858064516129&#4485.87225806451613&#4482.082&#4463.18064516129033&#4448.73400000000001&#4448.87935483870968, !- Feature Value 23
  EPWDataMonthlyAvgDailyLowDrybulbs,      !- Feature Name 24
  String,                                 !- Feature Data Type 24
  19.347741935483874&#4419.856428571428573&#4430.316129032258065&#4431.112&#4447.41612903225806&#4457.901999999999994&#4459.063870967741934&#4460.956774193548384&#4452.352000000000004&#4438.41612903225806&#4427.002000000000002&#4423.02903225806451, !- Feature Value 24
  EPWDesignHeatingDrybulb,                !- Feature Name 25
  Double,                                 !- Feature Data Type 25
  12.02,                                  !- Feature Value 25
  EPWDesignHeatingWindspeed,              !- Feature Name 26
  Double,                                 !- Feature Data Type 26
  2.8062500000000004,                     !- Feature Value 26
  EPWDesignCoolingDrybulb,                !- Feature Name 27
  Double,                                 !- Feature Data Type 27
  91.939999999999998,                     !- Feature Value 27
  EPWDesignCoolingWetbulb,                !- Feature Name 28
  Double,                                 !- Feature Data Type 28
  59.95131430195849,                      !- Feature Value 28
  EPWDesignCoolingHumidityRatio,          !- Feature Name 29
  Double,                                 !- Feature Data Type 29
  0.0059161086834698092,                  !- Feature Value 29
  EPWDesignCoolingWindspeed,              !- Feature Name 30
  Double,                                 !- Feature Data Type 30
  3.7999999999999989,                     !- Feature Value 30
  EPWDesignDailyTemperatureRange,         !- Feature Name 31
  Double,                                 !- Feature Data Type 31
  24.915483870967748,                     !- Feature Value 31
  EPWDesignDehumidDrybulb,                !- Feature Name 32
  Double,                                 !- Feature Data Type 32
  67.996785714285721,                     !- Feature Value 32
  EPWDesignDehumidHumidityRatio,          !- Feature Name 33
  Double,                                 !- Feature Data Type 33
  0.012133744170488724,                   !- Feature Value 33
  EPWDesignCoolingDirectNormal,           !- Feature Name 34
  Double,                                 !- Feature Data Type 34
  985,                                    !- Feature Value 34
  EPWDesignCoolingDiffuseHorizontal,      !- Feature Name 35
  Double,                                 !- Feature Data Type 35
  84;                                     !- Feature Value 35

OS:Site,
  {fba1ade2-1caa-4287-a340-10dfabb8a4ca}, !- Handle
  Denver Intl Ap_CO_USA,                  !- Name
  39.83,                                  !- Latitude {deg}
  -104.65,                                !- Longitude {deg}
  -7,                                     !- Time Zone {hr}
  1650,                                   !- Elevation {m}
  Suburbs;                                !- Terrain

OS:ClimateZones,
  {6101d918-05f7-49a2-874f-549a043edc82}, !- Handle
  ,                                       !- Active Institution
  ,                                       !- Active Year
  ,                                       !- Climate Zone Institution Name 1
  ,                                       !- Climate Zone Document Name 1
  ,                                       !- Climate Zone Document Year 1
  ,                                       !- Climate Zone Value 1
  Building America,                       !- Climate Zone Institution Name 2
  ,                                       !- Climate Zone Document Name 2
  0,                                      !- Climate Zone Document Year 2
  Cold;                                   !- Climate Zone Value 2

OS:Site:WaterMainsTemperature,
  {77f311d5-8be0-4832-9e8b-03276067ef26}, !- Handle
  Correlation,                            !- Calculation Method
  ,                                       !- Temperature Schedule Name
  10.8753424657535,                       !- Annual Average Outdoor Air Temperature {C}
  23.1524007936508;                       !- Maximum Difference In Monthly Average Outdoor Air Temperatures {deltaC}

OS:RunPeriodControl:DaylightSavingTime,
  {03ad3cd0-a02c-4103-9932-e370ecca81ea}, !- Handle
  4/7,                                    !- Start Date
  10/26;                                  !- End Date

OS:Site:GroundTemperature:Deep,
  {a447cf34-be78-4ddc-bc84-6d5799566bab}, !- Handle
  10.8753424657535,                       !- January Deep Ground Temperature {C}
  10.8753424657535,                       !- February Deep Ground Temperature {C}
  10.8753424657535,                       !- March Deep Ground Temperature {C}
  10.8753424657535,                       !- April Deep Ground Temperature {C}
  10.8753424657535,                       !- May Deep Ground Temperature {C}
  10.8753424657535,                       !- June Deep Ground Temperature {C}
  10.8753424657535,                       !- July Deep Ground Temperature {C}
  10.8753424657535,                       !- August Deep Ground Temperature {C}
  10.8753424657535,                       !- September Deep Ground Temperature {C}
  10.8753424657535,                       !- October Deep Ground Temperature {C}
  10.8753424657535,                       !- November Deep Ground Temperature {C}
  10.8753424657535;                       !- December Deep Ground Temperature {C}

OS:ThermalZone,
  {872a7db3-f847-44b5-a917-70aa436a4ded}, !- Handle
  living zone,                            !- Name
  ,                                       !- Multiplier
  ,                                       !- Ceiling Height {m}
  ,                                       !- Volume {m3}
  ,                                       !- Floor Area {m2}
  ,                                       !- Zone Inside Convection Algorithm
  ,                                       !- Zone Outside Convection Algorithm
  ,                                       !- Zone Conditioning Equipment List Name
  {80365fa2-51d4-4a6a-b849-3f4ceef29434}, !- Zone Air Inlet Port List
  {1725b12d-e8ba-4313-8e05-19e2bd09f526}, !- Zone Air Exhaust Port List
  {3637008e-4cc0-4797-8aa8-c604c9bcc5bc}, !- Zone Air Node Name
  {aad63d24-c5d9-4eb9-beeb-c1557aac7b46}, !- Zone Return Air Port List
  ,                                       !- Primary Daylighting Control Name
  ,                                       !- Fraction of Zone Controlled by Primary Daylighting Control
  ,                                       !- Secondary Daylighting Control Name
  ,                                       !- Fraction of Zone Controlled by Secondary Daylighting Control
  ,                                       !- Illuminance Map Name
  ,                                       !- Group Rendering Name
  {38fcc2c0-614b-4a04-b1bf-4f384d65ddae}, !- Thermostat Name
  No;                                     !- Use Ideal Air Loads

OS:Node,
  {3d4a0c22-36d1-4562-9fff-fcedf6276518}, !- Handle
  Node 1,                                 !- Name
  {3637008e-4cc0-4797-8aa8-c604c9bcc5bc}, !- Inlet Port
  ;                                       !- Outlet Port

OS:Connection,
  {3637008e-4cc0-4797-8aa8-c604c9bcc5bc}, !- Handle
  {26f4fc2b-9d82-43d5-9eae-762f69c0f94b}, !- Name
  {872a7db3-f847-44b5-a917-70aa436a4ded}, !- Source Object
  11,                                     !- Outlet Port
  {3d4a0c22-36d1-4562-9fff-fcedf6276518}, !- Target Object
  2;                                      !- Inlet Port

OS:PortList,
  {80365fa2-51d4-4a6a-b849-3f4ceef29434}, !- Handle
  {7f8e1a5d-9d08-4527-95b2-4561fabab008}, !- Name
  {872a7db3-f847-44b5-a917-70aa436a4ded}, !- HVAC Component
  {3a30799c-e4f5-40fc-84bb-9f3f39e5198b}, !- Port 1
  {09a16fa9-8c1c-40e4-8dd4-bff6d3d8c332}; !- Port 2

OS:PortList,
  {1725b12d-e8ba-4313-8e05-19e2bd09f526}, !- Handle
  {010cea5a-d3e0-4363-bf4e-3097b3231655}, !- Name
  {872a7db3-f847-44b5-a917-70aa436a4ded}; !- HVAC Component

OS:PortList,
  {aad63d24-c5d9-4eb9-beeb-c1557aac7b46}, !- Handle
  {fa4925ca-c421-40e0-b75e-d6214498a33b}, !- Name
  {872a7db3-f847-44b5-a917-70aa436a4ded}, !- HVAC Component
  {22cbc0e0-cad3-483c-a118-dde2ee947370}, !- Port 1
  {49b042be-0b82-4bd0-b7d5-346dbdb76be7}; !- Port 2

OS:Sizing:Zone,
  {ed9f3954-220c-4689-93dc-cf6386b60390}, !- Handle
  {872a7db3-f847-44b5-a917-70aa436a4ded}, !- Zone or ZoneList Name
  SupplyAirTemperature,                   !- Zone Cooling Design Supply Air Temperature Input Method
  14,                                     !- Zone Cooling Design Supply Air Temperature {C}
  11.11,                                  !- Zone Cooling Design Supply Air Temperature Difference {deltaC}
  SupplyAirTemperature,                   !- Zone Heating Design Supply Air Temperature Input Method
  40,                                     !- Zone Heating Design Supply Air Temperature {C}
  11.11,                                  !- Zone Heating Design Supply Air Temperature Difference {deltaC}
  0.0085,                                 !- Zone Cooling Design Supply Air Humidity Ratio {kg-H2O/kg-air}
  0.008,                                  !- Zone Heating Design Supply Air Humidity Ratio {kg-H2O/kg-air}
  ,                                       !- Zone Heating Sizing Factor
  ,                                       !- Zone Cooling Sizing Factor
  DesignDay,                              !- Cooling Design Air Flow Method
  ,                                       !- Cooling Design Air Flow Rate {m3/s}
  ,                                       !- Cooling Minimum Air Flow per Zone Floor Area {m3/s-m2}
  ,                                       !- Cooling Minimum Air Flow {m3/s}
  ,                                       !- Cooling Minimum Air Flow Fraction
  DesignDay,                              !- Heating Design Air Flow Method
  ,                                       !- Heating Design Air Flow Rate {m3/s}
  ,                                       !- Heating Maximum Air Flow per Zone Floor Area {m3/s-m2}
  ,                                       !- Heating Maximum Air Flow {m3/s}
  ,                                       !- Heating Maximum Air Flow Fraction
  ,                                       !- Design Zone Air Distribution Effectiveness in Cooling Mode
  ,                                       !- Design Zone Air Distribution Effectiveness in Heating Mode
  No,                                     !- Account for Dedicated Outdoor Air System
  NeutralSupplyAir,                       !- Dedicated Outdoor Air System Control Strategy
  autosize,                               !- Dedicated Outdoor Air Low Setpoint Temperature for Design {C}
  autosize;                               !- Dedicated Outdoor Air High Setpoint Temperature for Design {C}

OS:ZoneHVAC:EquipmentList,
  {f1ad4a28-856d-48d5-be05-4b382c98bc35}, !- Handle
  Zone HVAC Equipment List 1,             !- Name
  {872a7db3-f847-44b5-a917-70aa436a4ded}, !- Thermal Zone
  SequentialLoad,                         !- Load Distribution Scheme
  {b168e6f7-de8e-4e8c-a5f0-675989f1ec53}, !- Zone Equipment 1
  1,                                      !- Zone Equipment Cooling Sequence 1
  1,                                      !- Zone Equipment Heating or No-Load Sequence 1
  ,                                       !- Zone Equipment Sequential Cooling Fraction 1
  ,                                       !- Zone Equipment Sequential Heating Fraction 1
  {78d70313-ee1f-4dbd-8117-36e0cebc5412}, !- Zone Equipment 2
  2,                                      !- Zone Equipment Cooling Sequence 2
  2,                                      !- Zone Equipment Heating or No-Load Sequence 2
  ,                                       !- Zone Equipment Sequential Cooling Fraction 2
  ;                                       !- Zone Equipment Sequential Heating Fraction 2

OS:ThermalZone,
  {c1edd147-11ce-497f-afcb-648ed4b12f71}, !- Handle
  garage zone,                            !- Name
  ,                                       !- Multiplier
  ,                                       !- Ceiling Height {m}
  ,                                       !- Volume {m3}
  ,                                       !- Floor Area {m2}
  ,                                       !- Zone Inside Convection Algorithm
  ,                                       !- Zone Outside Convection Algorithm
  ,                                       !- Zone Conditioning Equipment List Name
  {97967dcf-7e14-40a2-93dd-5ac61f99823b}, !- Zone Air Inlet Port List
  {93cb7734-a18c-468b-a8f6-d39316312fcc}, !- Zone Air Exhaust Port List
  {26b85e9a-3849-44a8-980a-2167ab1a0b9c}, !- Zone Air Node Name
  {7f843c5f-2d6c-46c9-8739-a5e37adb4aa6}, !- Zone Return Air Port List
  ,                                       !- Primary Daylighting Control Name
  ,                                       !- Fraction of Zone Controlled by Primary Daylighting Control
  ,                                       !- Secondary Daylighting Control Name
  ,                                       !- Fraction of Zone Controlled by Secondary Daylighting Control
  ,                                       !- Illuminance Map Name
  ,                                       !- Group Rendering Name
  ,                                       !- Thermostat Name
  No;                                     !- Use Ideal Air Loads

OS:Node,
  {04972071-6a9d-4a0d-9225-7f758c6b4c6c}, !- Handle
  Node 2,                                 !- Name
  {26b85e9a-3849-44a8-980a-2167ab1a0b9c}, !- Inlet Port
  ;                                       !- Outlet Port

OS:Connection,
  {26b85e9a-3849-44a8-980a-2167ab1a0b9c}, !- Handle
  {59c52e8b-4e75-4eec-bc40-c2277e0050d8}, !- Name
  {c1edd147-11ce-497f-afcb-648ed4b12f71}, !- Source Object
  11,                                     !- Outlet Port
  {04972071-6a9d-4a0d-9225-7f758c6b4c6c}, !- Target Object
  2;                                      !- Inlet Port

OS:PortList,
  {97967dcf-7e14-40a2-93dd-5ac61f99823b}, !- Handle
  {50d7cb50-c0d3-41f5-b0f2-2e01a080e3c4}, !- Name
  {c1edd147-11ce-497f-afcb-648ed4b12f71}; !- HVAC Component

OS:PortList,
  {93cb7734-a18c-468b-a8f6-d39316312fcc}, !- Handle
  {5f786513-150e-41fb-8c0c-e56433d40382}, !- Name
  {c1edd147-11ce-497f-afcb-648ed4b12f71}; !- HVAC Component

OS:PortList,
  {7f843c5f-2d6c-46c9-8739-a5e37adb4aa6}, !- Handle
  {5b87a69d-4203-4f82-a502-c7247b5ac120}, !- Name
  {c1edd147-11ce-497f-afcb-648ed4b12f71}; !- HVAC Component

OS:Sizing:Zone,
  {adefd609-cfb4-4b17-b5ab-90d6d7a47198}, !- Handle
  {c1edd147-11ce-497f-afcb-648ed4b12f71}, !- Zone or ZoneList Name
  SupplyAirTemperature,                   !- Zone Cooling Design Supply Air Temperature Input Method
  14,                                     !- Zone Cooling Design Supply Air Temperature {C}
  11.11,                                  !- Zone Cooling Design Supply Air Temperature Difference {deltaC}
  SupplyAirTemperature,                   !- Zone Heating Design Supply Air Temperature Input Method
  40,                                     !- Zone Heating Design Supply Air Temperature {C}
  11.11,                                  !- Zone Heating Design Supply Air Temperature Difference {deltaC}
  0.0085,                                 !- Zone Cooling Design Supply Air Humidity Ratio {kg-H2O/kg-air}
  0.008,                                  !- Zone Heating Design Supply Air Humidity Ratio {kg-H2O/kg-air}
  ,                                       !- Zone Heating Sizing Factor
  ,                                       !- Zone Cooling Sizing Factor
  DesignDay,                              !- Cooling Design Air Flow Method
  ,                                       !- Cooling Design Air Flow Rate {m3/s}
  ,                                       !- Cooling Minimum Air Flow per Zone Floor Area {m3/s-m2}
  ,                                       !- Cooling Minimum Air Flow {m3/s}
  ,                                       !- Cooling Minimum Air Flow Fraction
  DesignDay,                              !- Heating Design Air Flow Method
  ,                                       !- Heating Design Air Flow Rate {m3/s}
  ,                                       !- Heating Maximum Air Flow per Zone Floor Area {m3/s-m2}
  ,                                       !- Heating Maximum Air Flow {m3/s}
  ,                                       !- Heating Maximum Air Flow Fraction
  ,                                       !- Design Zone Air Distribution Effectiveness in Cooling Mode
  ,                                       !- Design Zone Air Distribution Effectiveness in Heating Mode
  No,                                     !- Account for Dedicated Outdoor Air System
  NeutralSupplyAir,                       !- Dedicated Outdoor Air System Control Strategy
  autosize,                               !- Dedicated Outdoor Air Low Setpoint Temperature for Design {C}
  autosize;                               !- Dedicated Outdoor Air High Setpoint Temperature for Design {C}

OS:ZoneHVAC:EquipmentList,
  {7afda9dd-8873-4c54-a7e5-9837a61320f7}, !- Handle
  Zone HVAC Equipment List 2,             !- Name
  {c1edd147-11ce-497f-afcb-648ed4b12f71}; !- Thermal Zone

OS:Space,
  {59b4d11d-3a4a-4306-a662-3725784f5ea4}, !- Handle
  garage space,                           !- Name
  {e54c8357-45a5-456b-8669-16d5e6fb8d7c}, !- Space Type Name
  ,                                       !- Default Construction Set Name
  ,                                       !- Default Schedule Set Name
  -0,                                     !- Direction of Relative North {deg}
  0,                                      !- X Origin {m}
  0,                                      !- Y Origin {m}
  0,                                      !- Z Origin {m}
  ,                                       !- Building Story Name
  {c1edd147-11ce-497f-afcb-648ed4b12f71}; !- Thermal Zone Name

OS:Surface,
  {259a32b0-3b9d-41b4-905d-2b5f3bb3e8de}, !- Handle
  Surface 1,                              !- Name
  Floor,                                  !- Surface Type
  {b6d0ae68-edf8-49ef-827e-578e6a996680}, !- Construction Name
  {59b4d11d-3a4a-4306-a662-3725784f5ea4}, !- Space Name
  Foundation,                             !- Outside Boundary Condition
  {3c27d778-2570-4597-8994-7da55594968d}, !- Outside Boundary Condition Object
  NoSun,                                  !- Sun Exposure
  NoWind,                                 !- Wind Exposure
  ,                                       !- View Factor to Ground
  ,                                       !- Number of Vertices
  8.91701625975123, -3.048, 0,            !- X,Y,Z Vertex 1 {m}
  8.91701625975123, 3.048, 0,             !- X,Y,Z Vertex 2 {m}
  12.5746162597512, 3.048, 0,             !- X,Y,Z Vertex 3 {m}
  12.5746162597512, -3.048, 0;            !- X,Y,Z Vertex 4 {m}

OS:Surface,
  {fdeb355b-ad7f-4243-a1f6-5e4b1fbdcc3e}, !- Handle
  Surface 2,                              !- Name
  Wall,                                   !- Surface Type
  {e3d8e128-be96-4676-9dee-2e05643acbde}, !- Construction Name
  {59b4d11d-3a4a-4306-a662-3725784f5ea4}, !- Space Name
  Surface,                                !- Outside Boundary Condition
  {c0a6dac4-044d-4b99-b649-c1cfab2bbc54}, !- Outside Boundary Condition Object
  NoSun,                                  !- Sun Exposure
  NoWind,                                 !- Wind Exposure
  ,                                       !- View Factor to Ground
  ,                                       !- Number of Vertices
  8.91701625975123, 3.048, 2.4384,        !- X,Y,Z Vertex 1 {m}
  8.91701625975123, 3.048, 0,             !- X,Y,Z Vertex 2 {m}
  8.91701625975123, 0, 0,                 !- X,Y,Z Vertex 3 {m}
  8.91701625975123, 0, 2.4384;            !- X,Y,Z Vertex 4 {m}

OS:Surface,
  {5a190798-b131-44fd-b0af-b94fbce4ad1c}, !- Handle
  Surface 3,                              !- Name
  Wall,                                   !- Surface Type
  {e3d8e128-be96-4676-9dee-2e05643acbde}, !- Construction Name
  {59b4d11d-3a4a-4306-a662-3725784f5ea4}, !- Space Name
  Surface,                                !- Outside Boundary Condition
  {1f379833-0ddb-4f55-9e64-9f4d2cb0b1f8}, !- Outside Boundary Condition Object
  NoSun,                                  !- Sun Exposure
  NoWind,                                 !- Wind Exposure
  ,                                       !- View Factor to Ground
  ,                                       !- Number of Vertices
  12.5746162597512, 3.048, 2.4384,        !- X,Y,Z Vertex 1 {m}
  12.5746162597512, 3.048, 0,             !- X,Y,Z Vertex 2 {m}
  8.91701625975123, 3.048, 0,             !- X,Y,Z Vertex 3 {m}
  8.91701625975123, 3.048, 2.4384;        !- X,Y,Z Vertex 4 {m}

OS:Surface,
  {2685763b-370c-4528-81bb-fd976c05f6c7}, !- Handle
  Surface 4,                              !- Name
  Wall,                                   !- Surface Type
  {c2c74086-46bb-417f-9cd6-65a52fc6442a}, !- Construction Name
  {59b4d11d-3a4a-4306-a662-3725784f5ea4}, !- Space Name
  Outdoors,                               !- Outside Boundary Condition
  ,                                       !- Outside Boundary Condition Object
  SunExposed,                             !- Sun Exposure
  WindExposed,                            !- Wind Exposure
  ,                                       !- View Factor to Ground
  ,                                       !- Number of Vertices
  12.5746162597512, -3.048, 2.4384,       !- X,Y,Z Vertex 1 {m}
  12.5746162597512, -3.048, 0,            !- X,Y,Z Vertex 2 {m}
  12.5746162597512, 3.048, 0,             !- X,Y,Z Vertex 3 {m}