!- NOTE: Auto-generated from /test/osw_files/SFD_HVACSizing_Load_2story_CS_GRG_FlatRoof_Skylights.osw

OS:Version,
  {1e3d09e5-58c2-45e9-8f59-49f6c725077e}, !- Handle
  2.9.1;                                  !- Version Identifier

OS:SimulationControl,
  {807f35e2-3e33-4a46-a7b2-88bae34a1d6a}, !- Handle
  ,                                       !- Do Zone Sizing Calculation
  ,                                       !- Do System Sizing Calculation
  ,                                       !- Do Plant Sizing Calculation
  No;                                     !- Run Simulation for Sizing Periods

OS:Timestep,
  {e2ed2ba5-5cf1-4399-84ff-1f252e347bfb}, !- Handle
  6;                                      !- Number of Timesteps per Hour

OS:ShadowCalculation,
  {02115bb9-84b7-4d47-8fc5-e189671b0f25}, !- Handle
  20,                                     !- Calculation Frequency
  200;                                    !- Maximum Figures in Shadow Overlap Calculations

OS:SurfaceConvectionAlgorithm:Outside,
  {e23b33c2-bbff-4a96-ac60-cc197e752a0a}, !- Handle
  DOE-2;                                  !- Algorithm

OS:SurfaceConvectionAlgorithm:Inside,
  {c94355bd-55a1-444d-8956-cd4b4faf0598}, !- Handle
  TARP;                                   !- Algorithm

OS:ZoneCapacitanceMultiplier:ResearchSpecial,
  {85c99596-48c1-439f-9c6c-fadb8573fe0a}, !- Handle
  ,                                       !- Temperature Capacity Multiplier
  15,                                     !- Humidity Capacity Multiplier
  ;                                       !- Carbon Dioxide Capacity Multiplier

OS:RunPeriod,
  {42b7cd12-25ab-4299-9e28-c16ce7d62381}, !- Handle
  Run Period 1,                           !- Name
  1,                                      !- Begin Month
  1,                                      !- Begin Day of Month
  12,                                     !- End Month
  31,                                     !- End Day of Month
  ,                                       !- Use Weather File Holidays and Special Days
  ,                                       !- Use Weather File Daylight Saving Period
  ,                                       !- Apply Weekend Holiday Rule
  ,                                       !- Use Weather File Rain Indicators
  ,                                       !- Use Weather File Snow Indicators
  ;                                       !- Number of Times Runperiod to be Repeated

OS:YearDescription,
  {e341ab10-9bda-4015-9103-a63f3f152464}, !- Handle
  2007,                                   !- Calendar Year
  ,                                       !- Day of Week for Start Day
  ;                                       !- Is Leap Year

OS:WeatherFile,
  {e080a071-0317-4808-868c-8ef1349c8ba0}, !- Handle
  Denver Intl Ap,                         !- City
  CO,                                     !- State Province Region
  USA,                                    !- Country
  TMY3,                                   !- Data Source
  725650,                                 !- WMO Number
  39.83,                                  !- Latitude {deg}
  -104.65,                                !- Longitude {deg}
  -7,                                     !- Time Zone {hr}
  1650,                                   !- Elevation {m}
  file:../weather/USA_CO_Denver.Intl.AP.725650_TMY3.epw, !- Url
  E23378AA;                               !- Checksum

OS:AdditionalProperties,
  {43c07b40-8b47-420c-8ed2-f3c951bbf547}, !- Handle
  {e080a071-0317-4808-868c-8ef1349c8ba0}, !- Object Name
  EPWHeaderCity,                          !- Feature Name 1
  String,                                 !- Feature Data Type 1
  Denver Intl Ap,                         !- Feature Value 1
  EPWHeaderState,                         !- Feature Name 2
  String,                                 !- Feature Data Type 2
  CO,                                     !- Feature Value 2
  EPWHeaderCountry,                       !- Feature Name 3
  String,                                 !- Feature Data Type 3
  USA,                                    !- Feature Value 3
  EPWHeaderDataSource,                    !- Feature Name 4
  String,                                 !- Feature Data Type 4
  TMY3,                                   !- Feature Value 4
  EPWHeaderStation,                       !- Feature Name 5
  String,                                 !- Feature Data Type 5
  725650,                                 !- Feature Value 5
  EPWHeaderLatitude,                      !- Feature Name 6
  Double,                                 !- Feature Data Type 6
  39.829999999999998,                     !- Feature Value 6
  EPWHeaderLongitude,                     !- Feature Name 7
  Double,                                 !- Feature Data Type 7
  -104.65000000000001,                    !- Feature Value 7
  EPWHeaderTimezone,                      !- Feature Name 8
  Double,                                 !- Feature Data Type 8
  -7,                                     !- Feature Value 8
  EPWHeaderAltitude,                      !- Feature Name 9
  Double,                                 !- Feature Data Type 9
  5413.3858267716532,                     !- Feature Value 9
  EPWHeaderLocalPressure,                 !- Feature Name 10
  Double,                                 !- Feature Data Type 10
  0.81937567683596546,                    !- Feature Value 10
  EPWHeaderRecordsPerHour,                !- Feature Name 11
  Double,                                 !- Feature Data Type 11
  0,                                      !- Feature Value 11
  EPWDataAnnualAvgDrybulb,                !- Feature Name 12
  Double,                                 !- Feature Data Type 12
  51.575616438356228,                     !- Feature Value 12
  EPWDataAnnualMinDrybulb,                !- Feature Name 13
  Double,                                 !- Feature Data Type 13
  -2.9200000000000017,                    !- Feature Value 13
  EPWDataAnnualMaxDrybulb,                !- Feature Name 14
  Double,                                 !- Feature Data Type 14
  104,                                    !- Feature Value 14
  EPWDataCDD50F,                          !- Feature Name 15
  Double,                                 !- Feature Data Type 15
  3072.2925000000005,                     !- Feature Value 15
  EPWDataCDD65F,                          !- Feature Name 16
  Double,                                 !- Feature Data Type 16
  883.62000000000035,                     !- Feature Value 16
  EPWDataHDD50F,                          !- Feature Name 17
  Double,                                 !- Feature Data Type 17
  2497.1925000000001,                     !- Feature Value 17
  EPWDataHDD65F,                          !- Feature Name 18
  Double,                                 !- Feature Data Type 18
  5783.5200000000013,                     !- Feature Value 18
  EPWDataAnnualAvgWindspeed,              !- Feature Name 19
  Double,                                 !- Feature Data Type 19
  3.9165296803649667,                     !- Feature Value 19
  EPWDataMonthlyAvgDrybulbs,              !- Feature Name 20
  String,                                 !- Feature Data Type 20
  33.4191935483871&#4431.90142857142857&#4443.02620967741937&#4442.48624999999999&#4459.877741935483854&#4473.57574999999997&#4472.07975806451608&#4472.70008064516134&#4466.49200000000006&#4450.079112903225806&#4437.218250000000005&#4434.582177419354835, !- Feature Value 20
  EPWDataGroundMonthlyTemps,              !- Feature Name 21
  String,                                 !- Feature Data Type 21
  44.08306285945173&#4440.89570904991865&#4440.64045432632048&#4442.153016571250646&#4448.225111118704206&#4454.268919273837525&#4459.508577937551024&#4462.82777283423508&#4463.10975667174995&#4460.41014950381947&#4455.304105212311526&#4449.445696474514364, !- Feature Value 21
  EPWDataWSF,                             !- Feature Name 22
  Double,                                 !- Feature Data Type 22
  0.58999999999999997,                    !- Feature Value 22
  EPWDataMonthlyAvgDailyHighDrybulbs,     !- Feature Name 23
  String,                                 !- Feature Data Type 23
  47.41032258064516&#4446.58642857142857&#4455.15032258064517&#4453.708&#4472.80193548387098&#4488.67600000000002&#4486.1858064516129&#4485.87225806451613&#4482.082&#4463.18064516129033&#4448.73400000000001&#4448.87935483870968, !- Feature Value 23
  EPWDataMonthlyAvgDailyLowDrybulbs,      !- Feature Name 24
  String,                                 !- Feature Data Type 24
  19.347741935483874&#4419.856428571428573&#4430.316129032258065&#4431.112&#4447.41612903225806&#4457.901999999999994&#4459.063870967741934&#4460.956774193548384&#4452.352000000000004&#4438.41612903225806&#4427.002000000000002&#4423.02903225806451, !- Feature Value 24
  EPWDesignHeatingDrybulb,                !- Feature Name 25
  Double,                                 !- Feature Data Type 25
  12.02,                                  !- Feature Value 25
  EPWDesignHeatingWindspeed,              !- Feature Name 26
  Double,                                 !- Feature Data Type 26
  2.8062500000000004,                     !- Feature Value 26
  EPWDesignCoolingDrybulb,                !- Feature Name 27
  Double,                                 !- Feature Data Type 27
  91.939999999999998,                     !- Feature Value 27
  EPWDesignCoolingWetbulb,                !- Feature Name 28
  Double,                                 !- Feature Data Type 28
  59.95131430195849,                      !- Feature Value 28
  EPWDesignCoolingHumidityRatio,          !- Feature Name 29
  Double,                                 !- Feature Data Type 29
  0.0059161086834698092,                  !- Feature Value 29
  EPWDesignCoolingWindspeed,              !- Feature Name 30
  Double,                                 !- Feature Data Type 30
  3.7999999999999989,                     !- Feature Value 30
  EPWDesignDailyTemperatureRange,         !- Feature Name 31
  Double,                                 !- Feature Data Type 31
  24.915483870967748,                     !- Feature Value 31
  EPWDesignDehumidDrybulb,                !- Feature Name 32
  Double,                                 !- Feature Data Type 32
  67.996785714285721,                     !- Feature Value 32
  EPWDesignDehumidHumidityRatio,          !- Feature Name 33
  Double,                                 !- Feature Data Type 33
  0.012133744170488724,                   !- Feature Value 33
  EPWDesignCoolingDirectNormal,           !- Feature Name 34
  Double,                                 !- Feature Data Type 34
  985,                                    !- Feature Value 34
  EPWDesignCoolingDiffuseHorizontal,      !- Feature Name 35
  Double,                                 !- Feature Data Type 35
  84;                                     !- Feature Value 35

OS:Site,
  {4b7b5a22-31bd-4c48-a070-833b5449710c}, !- Handle
  Denver Intl Ap_CO_USA,                  !- Name
  39.83,                                  !- Latitude {deg}
  -104.65,                                !- Longitude {deg}
  -7,                                     !- Time Zone {hr}
  1650,                                   !- Elevation {m}
  ;                                       !- Terrain

OS:ClimateZones,
  {fa2306ad-cf6c-4dba-ae46-010de4fba4dc}, !- Handle
  ,                                       !- Active Institution
  ,                                       !- Active Year
  ,                                       !- Climate Zone Institution Name 1
  ,                                       !- Climate Zone Document Name 1
  ,                                       !- Climate Zone Document Year 1
  ,                                       !- Climate Zone Value 1
  Building America,                       !- Climate Zone Institution Name 2
  ,                                       !- Climate Zone Document Name 2
  0,                                      !- Climate Zone Document Year 2
  Cold;                                   !- Climate Zone Value 2

OS:Site:WaterMainsTemperature,
  {464dcc8f-88ff-4d6b-a151-d06ef43caa17}, !- Handle
  Correlation,                            !- Calculation Method
  ,                                       !- Temperature Schedule Name
  10.8753424657535,                       !- Annual Average Outdoor Air Temperature {C}
  23.1524007936508;                       !- Maximum Difference In Monthly Average Outdoor Air Temperatures {deltaC}

OS:RunPeriodControl:DaylightSavingTime,
  {b0fab79c-b65b-4a67-87b0-99b0b06d9ce1}, !- Handle
  4/7,                                    !- Start Date
  10/26;                                  !- End Date

OS:Site:GroundTemperature:Deep,
  {0919df33-a8b7-4b55-9701-ba9763a8546c}, !- Handle
  10.8753424657535,                       !- January Deep Ground Temperature {C}
  10.8753424657535,                       !- February Deep Ground Temperature {C}
  10.8753424657535,                       !- March Deep Ground Temperature {C}
  10.8753424657535,                       !- April Deep Ground Temperature {C}
  10.8753424657535,                       !- May Deep Ground Temperature {C}
  10.8753424657535,                       !- June Deep Ground Temperature {C}
  10.8753424657535,                       !- July Deep Ground Temperature {C}
  10.8753424657535,                       !- August Deep Ground Temperature {C}
  10.8753424657535,                       !- September Deep Ground Temperature {C}
  10.8753424657535,                       !- October Deep Ground Temperature {C}
  10.8753424657535,                       !- November Deep Ground Temperature {C}
  10.8753424657535;                       !- December Deep Ground Temperature {C}

OS:ThermalZone,
  {14b6d122-a184-4f04-bcae-2402226ddba0}, !- Handle
  living zone,                            !- Name
  ,                                       !- Multiplier
  ,                                       !- Ceiling Height {m}
  ,                                       !- Volume {m3}
  ,                                       !- Floor Area {m2}
  ,                                       !- Zone Inside Convection Algorithm
  ,                                       !- Zone Outside Convection Algorithm
  ,                                       !- Zone Conditioning Equipment List Name
  {0c4ca76e-f0a2-48c3-899b-4fb01c819029}, !- Zone Air Inlet Port List
  {23be3f21-0bcc-492c-885d-82ff5a19607f}, !- Zone Air Exhaust Port List
  {14e920da-84f4-4fe3-b57f-244dff0d7357}, !- Zone Air Node Name
  {435684aa-ca25-4cca-8a1b-0895833add6c}, !- Zone Return Air Port List
  ,                                       !- Primary Daylighting Control Name
  ,                                       !- Fraction of Zone Controlled by Primary Daylighting Control
  ,                                       !- Secondary Daylighting Control Name
  ,                                       !- Fraction of Zone Controlled by Secondary Daylighting Control
  ,                                       !- Illuminance Map Name
  ,                                       !- Group Rendering Name
  ,                                       !- Thermostat Name
  No;                                     !- Use Ideal Air Loads

OS:Node,
  {44f6fa79-25b9-4f9c-a7c1-0aaf535145ba}, !- Handle
  Node 1,                                 !- Name
  {14e920da-84f4-4fe3-b57f-244dff0d7357}, !- Inlet Port
  ;                                       !- Outlet Port

OS:Connection,
  {14e920da-84f4-4fe3-b57f-244dff0d7357}, !- Handle
  {3fb36455-d01f-4e45-baa7-55eb4241847c}, !- Name
  {14b6d122-a184-4f04-bcae-2402226ddba0}, !- Source Object
  11,                                     !- Outlet Port
  {44f6fa79-25b9-4f9c-a7c1-0aaf535145ba}, !- Target Object
  2;                                      !- Inlet Port

OS:PortList,
  {0c4ca76e-f0a2-48c3-899b-4fb01c819029}, !- Handle
  {cc1a517e-2143-4a88-83fa-bfc5270371a6}, !- Name
  {14b6d122-a184-4f04-bcae-2402226ddba0}; !- HVAC Component

OS:PortList,
  {23be3f21-0bcc-492c-885d-82ff5a19607f}, !- Handle
  {fb695793-cfa4-4f39-9053-1b7c87b6ed09}, !- Name
  {14b6d122-a184-4f04-bcae-2402226ddba0}; !- HVAC Component

OS:PortList,
  {435684aa-ca25-4cca-8a1b-0895833add6c}, !- Handle
  {4c11959b-f704-4c8d-8c5e-f4247575bce9}, !- Name
  {14b6d122-a184-4f04-bcae-2402226ddba0}; !- HVAC Component

OS:Sizing:Zone,
  {6dad972c-a715-46ae-9105-84fbbffaf24d}, !- Handle
  {14b6d122-a184-4f04-bcae-2402226ddba0}, !- Zone or ZoneList Name
  SupplyAirTemperature,                   !- Zone Cooling Design Supply Air Temperature Input Method
  14,                                     !- Zone Cooling Design Supply Air Temperature {C}
  11.11,                                  !- Zone Cooling Design Supply Air Temperature Difference {deltaC}
  SupplyAirTemperature,                   !- Zone Heating Design Supply Air Temperature Input Method
  40,                                     !- Zone Heating Design Supply Air Temperature {C}
  11.11,                                  !- Zone Heating Design Supply Air Temperature Difference {deltaC}
  0.0085,                                 !- Zone Cooling Design Supply Air Humidity Ratio {kg-H2O/kg-air}
  0.008,                                  !- Zone Heating Design Supply Air Humidity Ratio {kg-H2O/kg-air}
  ,                                       !- Zone Heating Sizing Factor
  ,                                       !- Zone Cooling Sizing Factor
  DesignDay,                              !- Cooling Design Air Flow Method
  ,                                       !- Cooling Design Air Flow Rate {m3/s}
  ,                                       !- Cooling Minimum Air Flow per Zone Floor Area {m3/s-m2}
  ,                                       !- Cooling Minimum Air Flow {m3/s}
  ,                                       !- Cooling Minimum Air Flow Fraction
  DesignDay,                              !- Heating Design Air Flow Method
  ,                                       !- Heating Design Air Flow Rate {m3/s}
  ,                                       !- Heating Maximum Air Flow per Zone Floor Area {m3/s-m2}
  ,                                       !- Heating Maximum Air Flow {m3/s}
  ,                                       !- Heating Maximum Air Flow Fraction
  ,                                       !- Design Zone Air Distribution Effectiveness in Cooling Mode
  ,                                       !- Design Zone Air Distribution Effectiveness in Heating Mode
  No,                                     !- Account for Dedicated Outdoor Air System
  NeutralSupplyAir,                       !- Dedicated Outdoor Air System Control Strategy
  autosize,                               !- Dedicated Outdoor Air Low Setpoint Temperature for Design {C}
  autosize;                               !- Dedicated Outdoor Air High Setpoint Temperature for Design {C}

OS:ZoneHVAC:EquipmentList,
  {064f380a-e8cb-4078-a431-3bef15bdbe68}, !- Handle
  Zone HVAC Equipment List 1,             !- Name
  {14b6d122-a184-4f04-bcae-2402226ddba0}; !- Thermal Zone

OS:ThermalZone,
  {210b449c-969b-46f5-ba24-a48f2c28eab1}, !- Handle
  garage zone,                            !- Name
  ,                                       !- Multiplier
  ,                                       !- Ceiling Height {m}
  ,                                       !- Volume {m3}
  ,                                       !- Floor Area {m2}
  ,                                       !- Zone Inside Convection Algorithm
  ,                                       !- Zone Outside Convection Algorithm
  ,                                       !- Zone Conditioning Equipment List Name
  {a5890f5f-b90d-43b5-a256-072cf7cce8c2}, !- Zone Air Inlet Port List
  {90d4b860-a505-43e6-be52-7538eba884df}, !- Zone Air Exhaust Port List
  {dd30f434-a469-4a8f-9a7e-a237be83b53d}, !- Zone Air Node Name
  {a58748bc-6875-44b9-aa50-a0fa9cb6f203}, !- Zone Return Air Port List
  ,                                       !- Primary Daylighting Control Name
  ,                                       !- Fraction of Zone Controlled by Primary Daylighting Control
  ,                                       !- Secondary Daylighting Control Name
  ,                                       !- Fraction of Zone Controlled by Secondary Daylighting Control
  ,                                       !- Illuminance Map Name
  ,                                       !- Group Rendering Name
  ,                                       !- Thermostat Name
  No;                                     !- Use Ideal Air Loads

OS:Node,
  {001ddbb2-27da-4228-a22a-ddc7594599ce}, !- Handle
  Node 2,                                 !- Name
  {dd30f434-a469-4a8f-9a7e-a237be83b53d}, !- Inlet Port
  ;                                       !- Outlet Port

OS:Connection,
  {dd30f434-a469-4a8f-9a7e-a237be83b53d}, !- Handle
  {14051899-610a-4a26-8f6f-33e2081e0cd1}, !- Name
  {210b449c-969b-46f5-ba24-a48f2c28eab1}, !- Source Object
  11,                                     !- Outlet Port
  {001ddbb2-27da-4228-a22a-ddc7594599ce}, !- Target Object
  2;                                      !- Inlet Port

OS:PortList,
  {a5890f5f-b90d-43b5-a256-072cf7cce8c2}, !- Handle
  {27537cb1-8209-4f7c-b120-1258c9440a1b}, !- Name
  {210b449c-969b-46f5-ba24-a48f2c28eab1}; !- HVAC Component

OS:PortList,
  {90d4b860-a505-43e6-be52-7538eba884df}, !- Handle
  {2b037e6c-ea4c-4b3d-aeda-4271a2f7aba4}, !- Name
  {210b449c-969b-46f5-ba24-a48f2c28eab1}; !- HVAC Component

OS:PortList,
  {a58748bc-6875-44b9-aa50-a0fa9cb6f203}, !- Handle
  {2a4aed1e-3b0d-41c8-8005-58fabece8aa2}, !- Name
  {210b449c-969b-46f5-ba24-a48f2c28eab1}; !- HVAC Component

OS:Sizing:Zone,
  {1148d87b-9c59-4cb5-b377-40fdaafd238d}, !- Handle
  {210b449c-969b-46f5-ba24-a48f2c28eab1}, !- Zone or ZoneList Name
  SupplyAirTemperature,                   !- Zone Cooling Design Supply Air Temperature Input Method
  14,                                     !- Zone Cooling Design Supply Air Temperature {C}
  11.11,                                  !- Zone Cooling Design Supply Air Temperature Difference {deltaC}
  SupplyAirTemperature,                   !- Zone Heating Design Supply Air Temperature Input Method
  40,                                     !- Zone Heating Design Supply Air Temperature {C}
  11.11,                                  !- Zone Heating Design Supply Air Temperature Difference {deltaC}
  0.0085,                                 !- Zone Cooling Design Supply Air Humidity Ratio {kg-H2O/kg-air}
  0.008,                                  !- Zone Heating Design Supply Air Humidity Ratio {kg-H2O/kg-air}
  ,                                       !- Zone Heating Sizing Factor
  ,                                       !- Zone Cooling Sizing Factor
  DesignDay,                              !- Cooling Design Air Flow Method
  ,                                       !- Cooling Design Air Flow Rate {m3/s}
  ,                                       !- Cooling Minimum Air Flow per Zone Floor Area {m3/s-m2}
  ,                                       !- Cooling Minimum Air Flow {m3/s}
  ,                                       !- Cooling Minimum Air Flow Fraction
  DesignDay,                              !- Heating Design Air Flow Method
  ,                                       !- Heating Design Air Flow Rate {m3/s}
  ,                                       !- Heating Maximum Air Flow per Zone Floor Area {m3/s-m2}
  ,                                       !- Heating Maximum Air Flow {m3/s}
  ,                                       !- Heating Maximum Air Flow Fraction
  ,                                       !- Design Zone Air Distribution Effectiveness in Cooling Mode
  ,                                       !- Design Zone Air Distribution Effectiveness in Heating Mode
  No,                                     !- Account for Dedicated Outdoor Air System
  NeutralSupplyAir,                       !- Dedicated Outdoor Air System Control Strategy
  autosize,                               !- Dedicated Outdoor Air Low Setpoint Temperature for Design {C}
  autosize;                               !- Dedicated Outdoor Air High Setpoint Temperature for Design {C}

OS:ZoneHVAC:EquipmentList,
  {1d7ba3b5-b579-4f0a-a17c-56bf652e7fc1}, !- Handle
  Zone HVAC Equipment List 2,             !- Name
  {210b449c-969b-46f5-ba24-a48f2c28eab1}; !- Thermal Zone

OS:Space,
  {40beedfa-7349-4683-abda-2f5990507f84}, !- Handle
  garage space,                           !- Name
  {c48f0698-5341-40c8-be39-6c2965207a83}, !- Space Type Name
  ,                                       !- Default Construction Set Name
  ,                                       !- Default Schedule Set Name
  -0,                                     !- Direction of Relative North {deg}
  0,                                      !- X Origin {m}
  0,                                      !- Y Origin {m}
  0,                                      !- Z Origin {m}
  ,                                       !- Building Story Name
  {210b449c-969b-46f5-ba24-a48f2c28eab1}; !- Thermal Zone Name

OS:Surface,
  {49c5ce84-3c99-4c96-98fc-42417e467383}, !- Handle
  Surface 1,                              !- Name
  Floor,                                  !- Surface Type
  {0e307b34-8d7d-4b4b-8acb-8846473ef936}, !- Construction Name
  {40beedfa-7349-4683-abda-2f5990507f84}, !- Space Name
  Foundation,                             !- Outside Boundary Condition
  {88f29eab-d9e2-4588-a3cd-38f81929dfd3}, !- Outside Boundary Condition Object
  NoSun,                                  !- Sun Exposure
  NoWind,                                 !- Wind Exposure
  ,                                       !- View Factor to Ground
  ,                                       !- Number of Vertices
  7.6199999993904, -3.048, 0,             !- X,Y,Z Vertex 1 {m}
  7.6199999993904, 3.048, 0,              !- X,Y,Z Vertex 2 {m}
  11.2775999993904, 3.048, 0,             !- X,Y,Z Vertex 3 {m}
  11.2775999993904, -3.048, 0;            !- X,Y,Z Vertex 4 {m}

OS:Surface,
  {c89d45cf-1e91-4141-b823-23b396116d37}, !- Handle
  Surface 2,                              !- Name
  Wall,                                   !- Surface Type
  {e35f9f31-2b78-4cdf-8231-f1b0cec59cf2}, !- Construction Name
  {40beedfa-7349-4683-abda-2f5990507f84}, !- Space Name
  Surface,                                !- Outside Boundary Condition
  {fe88c055-2d11-4fb1-84a5-26d58f1f730b}, !- Outside Boundary Condition Object
  NoSun,                                  !- Sun Exposure
  NoWind,                                 !- Wind Exposure
  ,                                       !- View Factor to Ground
  ,                                       !- Number of Vertices
  7.6199999993904, 3.048, 2.4384,         !- X,Y,Z Vertex 1 {m}
  7.6199999993904, 3.048, 0,              !- X,Y,Z Vertex 2 {m}
  7.6199999993904, 0, 0,                  !- X,Y,Z Vertex 3 {m}
  7.6199999993904, 0, 2.4384;             !- X,Y,Z Vertex 4 {m}

OS:Surface,
  {651d0157-398d-4fbf-ac08-6630ae4a69aa}, !- Handle
  Surface 3,                              !- Name
  Wall,                                   !- Surface Type
  {e35f9f31-2b78-4cdf-8231-f1b0cec59cf2}, !- Construction Name
  {40beedfa-7349-4683-abda-2f5990507f84}, !- Space Name
  Surface,                                !- Outside Boundary Condition
  {f561bbc9-e2e7-4f14-bada-40e86321cb19}, !- Outside Boundary Condition Object
  NoSun,                                  !- Sun Exposure
  NoWind,                                 !- Wind Exposure
  ,                                       !- View Factor to Ground
  ,                                       !- Number of Vertices
  11.2775999993904, 3.048, 2.4384,        !- X,Y,Z Vertex 1 {m}
  11.2775999993904, 3.048, 0,             !- X,Y,Z Vertex 2 {m}
  7.6199999993904, 3.048, 0,              !- X,Y,Z Vertex 3 {m}
  7.6199999993904, 3.048, 2.4384;         !- X,Y,Z Vertex 4 {m}

OS:Surface,
  {40b66bff-eea3-4a11-8940-3cc7cbf9fe7c}, !- Handle
  Surface 4,                              !- Name
  Wall,                                   !- Surface Type
  {dcbc8fbd-89de-4503-ad49-fcfed0f3812f}, !- Construction Name
  {40beedfa-7349-4683-abda-2f5990507f84}, !- Space Name
  Outdoors,                               !- Outside Boundary Condition
  ,                                       !- Outside Boundary Condition Object
  SunExposed,                             !- Sun Exposure
  WindExposed,                            !- Wind Exposure
  ,                                       !- View Factor to Ground
  ,                                       !- Number of Vertices
  11.2775999993904, -3.048, 2.4384,       !- X,Y,Z Vertex 1 {m}
  11.2775999993904, -3.048, 0,            !- X,Y,Z Vertex 2 {m}
  11.2775999993904, 3.048, 0,             !- X,Y,Z Vertex 3 {m}
  11.2775999993904, 3.048, 2.4384;        !- X,Y,Z Vertex 4 {m}

OS:Surface,
  {e60b27ce-80bc-4148-9041-cd095d43f93a}, !- Handle
  Surface 5,                              !- Name
  Wall,                                   !- Surface Type
  {dcbc8fbd-89de-4503-ad49-fcfed0f3812f}, !- Construction Name
  {40beedfa-7349-4683-abda-2f5990507f84}, !- Space Name
  Outdoors,                               !- Outside Boundary Condition
  ,                                       !- Outside Boundary Condition Object
  SunExposed,                             !- Sun Exposure
  WindExposed,                            !- Wind Exposure
  ,                                       !- View Factor to Ground
  ,                                       !- Number of Vertices
  7.6199999993904, -3.048, 2.4384,        !- X,Y,Z Vertex 1 {m}
  7.6199999993904, -3.048, 0,             !- X,Y,Z Vertex 2 {m}
  11.2775999993904, -3.048, 0,            !- X,Y,Z Vertex 3 {m}
  11.2775999993904, -3.048, 2.4384;       !- X,Y,Z Vertex 4 {m}

OS:Surface,
  {ab9d2edf-48ed-41a6-aeeb-b8bfed8fb3a1}, !- Handle
  Surface 6,                              !- Name