!- NOTE: Auto-generated from /test/osw_files/SFD_2story_CS_UA_AC2_FuelBoiler_FuelTankWH.osw

OS:Version,
  {81a2b63f-37b3-4047-a07b-967511b26c9a}, !- Handle
  2.8.1;                                  !- Version Identifier

OS:SimulationControl,
  {0dcf46df-ae5e-4c6c-abfc-e8f5cb8ab156}, !- Handle
  ,                                       !- Do Zone Sizing Calculation
  ,                                       !- Do System Sizing Calculation
  ,                                       !- Do Plant Sizing Calculation
  No;                                     !- Run Simulation for Sizing Periods

OS:Timestep,
  {d6b8094b-bc26-44df-be71-e9648e7f6aa7}, !- Handle
  6;                                      !- Number of Timesteps per Hour

OS:ShadowCalculation,
  {5fc73547-9ebb-476b-8eae-0d733e01c1f0}, !- Handle
  20,                                     !- Calculation Frequency
  200;                                    !- Maximum Figures in Shadow Overlap Calculations

OS:SurfaceConvectionAlgorithm:Outside,
  {4732657e-4ba1-448a-917f-195bb7385690}, !- Handle
  DOE-2;                                  !- Algorithm

OS:SurfaceConvectionAlgorithm:Inside,
  {a7cde741-d978-4189-85e1-59fbfa22e531}, !- Handle
  TARP;                                   !- Algorithm

OS:ZoneCapacitanceMultiplier:ResearchSpecial,
  {dd872b04-5730-4ac0-b143-92332b96eff3}, !- Handle
  ,                                       !- Temperature Capacity Multiplier
  15,                                     !- Humidity Capacity Multiplier
  ;                                       !- Carbon Dioxide Capacity Multiplier

OS:RunPeriod,
  {d045e21c-51ee-42c0-9ac8-79f781e5ad60}, !- Handle
  Run Period 1,                           !- Name
  1,                                      !- Begin Month
  1,                                      !- Begin Day of Month
  12,                                     !- End Month
  31,                                     !- End Day of Month
  ,                                       !- Use Weather File Holidays and Special Days
  ,                                       !- Use Weather File Daylight Saving Period
  ,                                       !- Apply Weekend Holiday Rule
  ,                                       !- Use Weather File Rain Indicators
  ,                                       !- Use Weather File Snow Indicators
  ;                                       !- Number of Times Runperiod to be Repeated

OS:YearDescription,
  {37b51bac-176c-46ad-be56-bf8d8a087c46}, !- Handle
  2007,                                   !- Calendar Year
  ,                                       !- Day of Week for Start Day
  ;                                       !- Is Leap Year

OS:WeatherFile,
  {537840dd-1930-452b-905d-7492c5d1f6eb}, !- Handle
  Denver Intl Ap,                         !- City
  CO,                                     !- State Province Region
  USA,                                    !- Country
  TMY3,                                   !- Data Source
  725650,                                 !- WMO Number
  39.83,                                  !- Latitude {deg}
  -104.65,                                !- Longitude {deg}
  -7,                                     !- Time Zone {hr}
  1650,                                   !- Elevation {m}
  file:../weather/USA_CO_Denver.Intl.AP.725650_TMY3.epw, !- Url
  E23378AA;                               !- Checksum

OS:AdditionalProperties,
  {ae605b68-15a7-4999-b0e8-d76290349639}, !- Handle
  {537840dd-1930-452b-905d-7492c5d1f6eb}, !- Object Name
  EPWHeaderCity,                          !- Feature Name 1
  String,                                 !- Feature Data Type 1
  Denver Intl Ap,                         !- Feature Value 1
  EPWHeaderState,                         !- Feature Name 2
  String,                                 !- Feature Data Type 2
  CO,                                     !- Feature Value 2
  EPWHeaderCountry,                       !- Feature Name 3
  String,                                 !- Feature Data Type 3
  USA,                                    !- Feature Value 3
  EPWHeaderDataSource,                    !- Feature Name 4
  String,                                 !- Feature Data Type 4
  TMY3,                                   !- Feature Value 4
  EPWHeaderStation,                       !- Feature Name 5
  String,                                 !- Feature Data Type 5
  725650,                                 !- Feature Value 5
  EPWHeaderLatitude,                      !- Feature Name 6
  Double,                                 !- Feature Data Type 6
  39.829999999999998,                     !- Feature Value 6
  EPWHeaderLongitude,                     !- Feature Name 7
  Double,                                 !- Feature Data Type 7
  -104.65000000000001,                    !- Feature Value 7
  EPWHeaderTimezone,                      !- Feature Name 8
  Double,                                 !- Feature Data Type 8
  -7,                                     !- Feature Value 8
  EPWHeaderAltitude,                      !- Feature Name 9
  Double,                                 !- Feature Data Type 9
  5413.3858267716532,                     !- Feature Value 9
  EPWHeaderLocalPressure,                 !- Feature Name 10
  Double,                                 !- Feature Data Type 10
  0.81937567683596546,                    !- Feature Value 10
  EPWHeaderRecordsPerHour,                !- Feature Name 11
  Double,                                 !- Feature Data Type 11
  0,                                      !- Feature Value 11
  EPWDataAnnualAvgDrybulb,                !- Feature Name 12
  Double,                                 !- Feature Data Type 12
  51.575616438356228,                     !- Feature Value 12
  EPWDataAnnualMinDrybulb,                !- Feature Name 13
  Double,                                 !- Feature Data Type 13
  -2.9200000000000017,                    !- Feature Value 13
  EPWDataAnnualMaxDrybulb,                !- Feature Name 14
  Double,                                 !- Feature Data Type 14
  104,                                    !- Feature Value 14
  EPWDataCDD50F,                          !- Feature Name 15
  Double,                                 !- Feature Data Type 15
  3072.2925000000005,                     !- Feature Value 15
  EPWDataCDD65F,                          !- Feature Name 16
  Double,                                 !- Feature Data Type 16
  883.62000000000035,                     !- Feature Value 16
  EPWDataHDD50F,                          !- Feature Name 17
  Double,                                 !- Feature Data Type 17
  2497.1925000000001,                     !- Feature Value 17
  EPWDataHDD65F,                          !- Feature Name 18
  Double,                                 !- Feature Data Type 18
  5783.5200000000013,                     !- Feature Value 18
  EPWDataAnnualAvgWindspeed,              !- Feature Name 19
  Double,                                 !- Feature Data Type 19
  3.9165296803649667,                     !- Feature Value 19
  EPWDataMonthlyAvgDrybulbs,              !- Feature Name 20
  String,                                 !- Feature Data Type 20
  33.4191935483871&#4431.90142857142857&#4443.02620967741937&#4442.48624999999999&#4459.877741935483854&#4473.57574999999997&#4472.07975806451608&#4472.70008064516134&#4466.49200000000006&#4450.079112903225806&#4437.218250000000005&#4434.582177419354835, !- Feature Value 20
  EPWDataGroundMonthlyTemps,              !- Feature Name 21
  String,                                 !- Feature Data Type 21
  44.08306285945173&#4440.89570904991865&#4440.64045432632048&#4442.153016571250646&#4448.225111118704206&#4454.268919273837525&#4459.508577937551024&#4462.82777283423508&#4463.10975667174995&#4460.41014950381947&#4455.304105212311526&#4449.445696474514364, !- Feature Value 21
  EPWDataWSF,                             !- Feature Name 22
  Double,                                 !- Feature Data Type 22
  0.58999999999999997,                    !- Feature Value 22
  EPWDataMonthlyAvgDailyHighDrybulbs,     !- Feature Name 23
  String,                                 !- Feature Data Type 23
  47.41032258064516&#4446.58642857142857&#4455.15032258064517&#4453.708&#4472.80193548387098&#4488.67600000000002&#4486.1858064516129&#4485.87225806451613&#4482.082&#4463.18064516129033&#4448.73400000000001&#4448.87935483870968, !- Feature Value 23
  EPWDataMonthlyAvgDailyLowDrybulbs,      !- Feature Name 24
  String,                                 !- Feature Data Type 24
  19.347741935483874&#4419.856428571428573&#4430.316129032258065&#4431.112&#4447.41612903225806&#4457.901999999999994&#4459.063870967741934&#4460.956774193548384&#4452.352000000000004&#4438.41612903225806&#4427.002000000000002&#4423.02903225806451, !- Feature Value 24
  EPWDesignHeatingDrybulb,                !- Feature Name 25
  Double,                                 !- Feature Data Type 25
  12.02,                                  !- Feature Value 25
  EPWDesignHeatingWindspeed,              !- Feature Name 26
  Double,                                 !- Feature Data Type 26
  2.8062500000000004,                     !- Feature Value 26
  EPWDesignCoolingDrybulb,                !- Feature Name 27
  Double,                                 !- Feature Data Type 27
  91.939999999999998,                     !- Feature Value 27
  EPWDesignCoolingWetbulb,                !- Feature Name 28
  Double,                                 !- Feature Data Type 28
  59.95131430195849,                      !- Feature Value 28
  EPWDesignCoolingHumidityRatio,          !- Feature Name 29
  Double,                                 !- Feature Data Type 29
  0.0059161086834698092,                  !- Feature Value 29
  EPWDesignCoolingWindspeed,              !- Feature Name 30
  Double,                                 !- Feature Data Type 30
  3.7999999999999989,                     !- Feature Value 30
  EPWDesignDailyTemperatureRange,         !- Feature Name 31
  Double,                                 !- Feature Data Type 31
  24.915483870967748,                     !- Feature Value 31
  EPWDesignDehumidDrybulb,                !- Feature Name 32
  Double,                                 !- Feature Data Type 32
  67.996785714285721,                     !- Feature Value 32
  EPWDesignDehumidHumidityRatio,          !- Feature Name 33
  Double,                                 !- Feature Data Type 33
  0.012133744170488724,                   !- Feature Value 33
  EPWDesignCoolingDirectNormal,           !- Feature Name 34
  Double,                                 !- Feature Data Type 34
  985,                                    !- Feature Value 34
  EPWDesignCoolingDiffuseHorizontal,      !- Feature Name 35
  Double,                                 !- Feature Data Type 35
  84;                                     !- Feature Value 35

OS:Site,
  {93792223-a054-4f3c-a263-2c29e211ea7d}, !- Handle
  Denver Intl Ap_CO_USA,                  !- Name
  39.83,                                  !- Latitude {deg}
  -104.65,                                !- Longitude {deg}
  -7,                                     !- Time Zone {hr}
  1650,                                   !- Elevation {m}
  Suburbs;                                !- Terrain

OS:ClimateZones,
  {4ea94102-0d61-4adc-a64a-867a06c0e14d}, !- Handle
  ,                                       !- Active Institution
  ,                                       !- Active Year
  ,                                       !- Climate Zone Institution Name 1
  ,                                       !- Climate Zone Document Name 1
  ,                                       !- Climate Zone Document Year 1
  ,                                       !- Climate Zone Value 1
  Building America,                       !- Climate Zone Institution Name 2
  ,                                       !- Climate Zone Document Name 2
  0,                                      !- Climate Zone Document Year 2
  Cold;                                   !- Climate Zone Value 2

OS:Site:WaterMainsTemperature,
  {e84037e9-368e-4285-b34d-854e9ccda4d9}, !- Handle
  Correlation,                            !- Calculation Method
  ,                                       !- Temperature Schedule Name
  10.8753424657535,                       !- Annual Average Outdoor Air Temperature {C}
  23.1524007936508;                       !- Maximum Difference In Monthly Average Outdoor Air Temperatures {deltaC}

OS:RunPeriodControl:DaylightSavingTime,
  {6970536a-c03f-417c-b96b-bc938247c6c0}, !- Handle
  4/7,                                    !- Start Date
  10/26;                                  !- End Date

OS:Site:GroundTemperature:Deep,
  {d9b9f39d-4c62-4df4-a73a-5b5fe2d16af9}, !- Handle
  10.8753424657535,                       !- January Deep Ground Temperature {C}
  10.8753424657535,                       !- February Deep Ground Temperature {C}
  10.8753424657535,                       !- March Deep Ground Temperature {C}
  10.8753424657535,                       !- April Deep Ground Temperature {C}
  10.8753424657535,                       !- May Deep Ground Temperature {C}
  10.8753424657535,                       !- June Deep Ground Temperature {C}
  10.8753424657535,                       !- July Deep Ground Temperature {C}
  10.8753424657535,                       !- August Deep Ground Temperature {C}
  10.8753424657535,                       !- September Deep Ground Temperature {C}
  10.8753424657535,                       !- October Deep Ground Temperature {C}
  10.8753424657535,                       !- November Deep Ground Temperature {C}
  10.8753424657535;                       !- December Deep Ground Temperature {C}

OS:ThermalZone,
  {8280fd0c-a3f0-474c-92f0-82f44ee94792}, !- Handle
  living zone,                            !- Name
  ,                                       !- Multiplier
  ,                                       !- Ceiling Height {m}
  ,                                       !- Volume {m3}
  ,                                       !- Floor Area {m2}
  ,                                       !- Zone Inside Convection Algorithm
  ,                                       !- Zone Outside Convection Algorithm
  ,                                       !- Zone Conditioning Equipment List Name
  {71a82cc1-6974-40e0-ab7c-ed0ce18d4cea}, !- Zone Air Inlet Port List
  {ad612902-15de-41b8-b701-73d68fdae4e4}, !- Zone Air Exhaust Port List
  {24851b82-6f02-4504-92d5-2acee4884390}, !- Zone Air Node Name
  {c50734fb-7e2d-4124-a258-014fae128c9c}, !- Zone Return Air Port List
  ,                                       !- Primary Daylighting Control Name
  ,                                       !- Fraction of Zone Controlled by Primary Daylighting Control
  ,                                       !- Secondary Daylighting Control Name
  ,                                       !- Fraction of Zone Controlled by Secondary Daylighting Control
  ,                                       !- Illuminance Map Name
  ,                                       !- Group Rendering Name
  {ee5a2d00-4b90-4fd7-9b6d-82a0a4e33897}, !- Thermostat Name
  No;                                     !- Use Ideal Air Loads

OS:Node,
  {0df99005-c762-4a19-92d7-9cae8e21df1f}, !- Handle
  Node 1,                                 !- Name
  {24851b82-6f02-4504-92d5-2acee4884390}, !- Inlet Port
  ;                                       !- Outlet Port

OS:Connection,
  {24851b82-6f02-4504-92d5-2acee4884390}, !- Handle
  {e7a01433-695c-4e15-882d-e73210839eb0}, !- Name
  {8280fd0c-a3f0-474c-92f0-82f44ee94792}, !- Source Object
  11,                                     !- Outlet Port
  {0df99005-c762-4a19-92d7-9cae8e21df1f}, !- Target Object
  2;                                      !- Inlet Port

OS:PortList,
  {71a82cc1-6974-40e0-ab7c-ed0ce18d4cea}, !- Handle
  {9e03aa1e-c2da-4c5b-bd75-67a24954489a}, !- Name
  {8280fd0c-a3f0-474c-92f0-82f44ee94792}, !- HVAC Component
  {a95c1349-e030-47e8-b4c4-619ce9c38c3b}; !- Port 1

OS:PortList,
  {ad612902-15de-41b8-b701-73d68fdae4e4}, !- Handle
  {4eb65429-2286-498f-86b3-6c907b166a6d}, !- Name
  {8280fd0c-a3f0-474c-92f0-82f44ee94792}; !- HVAC Component

OS:PortList,
  {c50734fb-7e2d-4124-a258-014fae128c9c}, !- Handle
  {de18a28a-5f4b-4bf8-a535-51484003caf1}, !- Name
  {8280fd0c-a3f0-474c-92f0-82f44ee94792}, !- HVAC Component
  {d1b9b290-41cb-4b71-8c1e-752bb818cde3}; !- Port 1

OS:Sizing:Zone,
  {03bc6bf0-321c-441c-9e57-77db0f29cceb}, !- Handle
  {8280fd0c-a3f0-474c-92f0-82f44ee94792}, !- Zone or ZoneList Name
  SupplyAirTemperature,                   !- Zone Cooling Design Supply Air Temperature Input Method
  14,                                     !- Zone Cooling Design Supply Air Temperature {C}
  11.11,                                  !- Zone Cooling Design Supply Air Temperature Difference {deltaC}
  SupplyAirTemperature,                   !- Zone Heating Design Supply Air Temperature Input Method
  40,                                     !- Zone Heating Design Supply Air Temperature {C}
  11.11,                                  !- Zone Heating Design Supply Air Temperature Difference {deltaC}
  0.0085,                                 !- Zone Cooling Design Supply Air Humidity Ratio {kg-H2O/kg-air}
  0.008,                                  !- Zone Heating Design Supply Air Humidity Ratio {kg-H2O/kg-air}
  ,                                       !- Zone Heating Sizing Factor
  ,                                       !- Zone Cooling Sizing Factor
  DesignDay,                              !- Cooling Design Air Flow Method
  ,                                       !- Cooling Design Air Flow Rate {m3/s}
  ,                                       !- Cooling Minimum Air Flow per Zone Floor Area {m3/s-m2}
  ,                                       !- Cooling Minimum Air Flow {m3/s}
  ,                                       !- Cooling Minimum Air Flow Fraction
  DesignDay,                              !- Heating Design Air Flow Method
  ,                                       !- Heating Design Air Flow Rate {m3/s}
  ,                                       !- Heating Maximum Air Flow per Zone Floor Area {m3/s-m2}
  ,                                       !- Heating Maximum Air Flow {m3/s}
  ,                                       !- Heating Maximum Air Flow Fraction
  ,                                       !- Design Zone Air Distribution Effectiveness in Cooling Mode
  ,                                       !- Design Zone Air Distribution Effectiveness in Heating Mode
  No,                                     !- Account for Dedicated Outdoor Air System
  NeutralSupplyAir,                       !- Dedicated Outdoor Air System Control Strategy
  autosize,                               !- Dedicated Outdoor Air Low Setpoint Temperature for Design {C}
  autosize;                               !- Dedicated Outdoor Air High Setpoint Temperature for Design {C}

OS:ZoneHVAC:EquipmentList,
  {88c29df0-bde1-4fd0-8a18-fbfad73306e4}, !- Handle
  Zone HVAC Equipment List 1,             !- Name
  {8280fd0c-a3f0-474c-92f0-82f44ee94792}, !- Thermal Zone
  SequentialLoad,                         !- Load Distribution Scheme
  {b9138da5-fcf4-4ca6-a4c1-90ad07c1dd4d}, !- Zone Equipment 1
  1,                                      !- Zone Equipment Cooling Sequence 1
  1,                                      !- Zone Equipment Heating or No-Load Sequence 1
  ,                                       !- Zone Equipment Sequential Cooling Fraction 1
  ,                                       !- Zone Equipment Sequential Heating Fraction 1
  {d58d64e5-d018-48c1-aadc-ae6d47e04e68}, !- Zone Equipment 2
  2,                                      !- Zone Equipment Cooling Sequence 2
  2,                                      !- Zone Equipment Heating or No-Load Sequence 2
  ,                                       !- Zone Equipment Sequential Cooling Fraction 2
  ;                                       !- Zone Equipment Sequential Heating Fraction 2

OS:Space,
  {4ba13201-6662-49bf-8d77-b9ffe4028937}, !- Handle
  living space,                           !- Name
  {dece095f-635b-46d4-b814-e0c07d80bfa0}, !- Space Type Name
  ,                                       !- Default Construction Set Name
  ,                                       !- Default Schedule Set Name
  -0,                                     !- Direction of Relative North {deg}
  0,                                      !- X Origin {m}
  0,                                      !- Y Origin {m}
  0,                                      !- Z Origin {m}
  ,                                       !- Building Story Name
  {8280fd0c-a3f0-474c-92f0-82f44ee94792}, !- Thermal Zone Name
  ,                                       !- Part of Total Floor Area
  ,                                       !- Design Specification Outdoor Air Object Name
  {2e5da045-b876-4863-b843-f879e506f0a6}; !- Building Unit Name

OS:Surface,
  {f13dbb97-2203-4583-af90-8e820c8838e5}, !- Handle
  Surface 1,                              !- Name
  Floor,                                  !- Surface Type
  {a8c72236-9338-4068-87e8-3ecdb5f92bcc}, !- Construction Name
  {4ba13201-6662-49bf-8d77-b9ffe4028937}, !- Space Name
  Surface,                                !- Outside Boundary Condition
  {afabc83f-ff87-4af3-9d28-26d24559dcc9}, !- Outside Boundary Condition Object
  NoSun,                                  !- Sun Exposure
  NoWind,                                 !- Wind Exposure
  ,                                       !- View Factor to Ground
  ,                                       !- Number of Vertices
  0, 0, 0,                                !- X,Y,Z Vertex 1 {m}
  0, 7.18420489685532, 0,                 !- X,Y,Z Vertex 2 {m}
  12.9315688143396, 7.18420489685532, 0,  !- X,Y,Z Vertex 3 {m}
  12.9315688143396, 0, 0;                 !- X,Y,Z Vertex 4 {m}

OS:Surface,
  {cd70662f-96ff-4cee-a8eb-1e686a3b42cc}, !- Handle
  Surface 2,                              !- Name
  Wall,                                   !- Surface Type
  {96f034a7-3b78-41fd-9167-7c369417c71d}, !- Construction Name
  {4ba13201-6662-49bf-8d77-b9ffe4028937}, !- Space Name
  Outdoors,                               !- Outside Boundary Condition
  ,                                       !- Outside Boundary Condition Object
  SunExposed,                             !- Sun Exposure
  WindExposed,                            !- Wind Exposure
  ,                                       !- View Factor to Ground
  ,                                       !- Number of Vertices
  0, 7.18420489685532, 2.4384,            !- X,Y,Z Vertex 1 {m}
  0, 7.18420489685532, 0,                 !- X,Y,Z Vertex 2 {m}
  0, 0, 0,                                !- X,Y,Z Vertex 3 {m}
  0, 0, 2.4384;                           !- X,Y,Z Vertex 4 {m}

OS:Surface,
  {5a2f36bf-3094-49f1-9b02-10191fd0dc56}, !- Handle
  Surface 3,                              !- Name
  Wall,                                   !- Surface Type
  {96f034a7-3b78-41fd-9167-7c369417c71d}, !- Construction Name
  {4ba13201-6662-49bf-8d77-b9ffe4028937}, !- Space Name
  Outdoors,                               !- Outside Boundary Condition
  ,                                       !- Outside Boundary Condition Object
  SunExposed,                             !- Sun Exposure
  WindExposed,                            !- Wind Exposure
  ,                                       !- View Factor to Ground
  ,                                       !- Number of Vertices
  12.9315688143396, 7.18420489685532, 2.4384, !- X,Y,Z Vertex 1 {m}
  12.9315688143396, 7.18420489685532, 0,  !- X,Y,Z Vertex 2 {m}
  0, 7.18420489685532, 0,                 !- X,Y,Z Vertex 3 {m}
  0, 7.18420489685532, 2.4384;            !- X,Y,Z Vertex 4 {m}

OS:Surface,
  {5a0f8e3d-374e-425d-a3e6-8d137b89e35c}, !- Handle
  Surface 4,                              !- Name
  Wall,                                   !- Surface Type
  {96f034a7-3b78-41fd-9167-7c369417c71d}, !- Construction Name
  {4ba13201-6662-49bf-8d77-b9ffe4028937}, !- Space Name
  Outdoors,                               !- Outside Boundary Condition
  ,                                       !- Outside Boundary Condition Object
  SunExposed,                             !- Sun Exposure
  WindExposed,                            !- Wind Exposure
  ,                                       !- View Factor to Ground
  ,                                       !- Number of Vertices
  12.9315688143396, 0, 2.4384,            !- X,Y,Z Vertex 1 {m}
  12.9315688143396, 0, 0,                 !- X,Y,Z Vertex 2 {m}
  12.9315688143396, 7.18420489685532, 0,  !- X,Y,Z Vertex 3 {m}
  12.9315688143396, 7.18420489685532, 2.4384; !- X,Y,Z Vertex 4 {m}

OS:Surface,
  {6b1966fb-0a08-45d4-adf9-75ee25ffccf5}, !- Handle
  Surface 5,                              !- Name
  Wall,                                   !- Surface Type
  {96f034a7-3b78-41fd-9167-7c369417c71d}, !- Construction Name
  {4ba13201-6662-49bf-8d77-b9ffe4028937}, !- Space Name
  Outdoors,                               !- Outside Boundary Condition
  ,                                       !- Outside Boundary Condition Object
  SunExposed,                             !- Sun Exposure
  WindExposed,                            !- Wind Exposure
  ,                                       !- View Factor to Ground
  ,                                       !- Number of Vertices
  12.9315688143396, 0, 0,                 !- X,Y,Z Vertex 1 {m}
  12.9315688143396, 0, 2.4384,            !- X,Y,Z Vertex 2 {m}
  1.04865714285714, 0, 2.4384,            !- X,Y,Z Vertex 3 {m}
  1.04865714285714, 0, 0;                 !- X,Y,Z Vertex 4 {m}

OS:Surface,
  {8ebe2738-c2e9-4812-9e8d-506625575dc2}, !- Handle
  Surface 6,                              !- Name
  RoofCeiling,                            !- Surface Type
  {e0e90307-8784-4c3d-aa0d-fedf31f2b0cf}, !- Construction Name
  {4ba13201-6662-49bf-8d77-b9ffe4028937}, !- Space Name
  Surface,                                !- Outside Boundary Condition
  {5df656e1-1d1d-49c4-9dc3-c31fa8a6a2df}, !- Outside Boundary Condition Object
  NoSun,                                  !- Sun Exposure
  NoWind,                                 !- Wind Exposure
  ,                                       !- View Factor to Ground
  ,                                       !- Number of Vertices
  12.9315688143396, 0, 2.4384,            !- X,Y,Z Vertex 1 {m}
  12.9315688143396, 7.18420489685532, 2.4384, !- X,Y,Z Vertex 2 {m}
  0, 7.18420489685532, 2.4384,            !- X,Y,Z Vertex 3 {m}
  0, 0, 2.4384;                           !- X,Y,Z Vertex 4 {m}

OS:SpaceType,
  {dece095f-635b-46d4-b814-e0c07d80bfa0}, !- Handle
  Space Type 1,                           !- Name
  ,                                       !- Default Construction Set Name
  ,                                       !- Default Schedule Set Name
  ,                                       !- Group Rendering Name
  ,                                       !- Design Specification Outdoor Air Object Name
  ,                                       !- Standards Template
  ,                                       !- Standards Building Type
  living;                                 !- Standards Space Type

OS:Space,
  {9fd2093b-17d0-4c01-81ac-8a03ca55d5e8}, !- Handle
  living space|story 2,                   !- Name
  {dece095f-635b-46d4-b814-e0c07d80bfa0}, !- Space Type Name
  ,                                       !- Default Construction Set Name
  ,                                       !- Default Schedule Set Name
  -0,                                     !- Direction of Relative North {deg}
  0,                                      !- X Origin {m}
  0,                                      !- Y Origin {m}
  2.4384,                                 !- Z Origin {m}
  ,                                       !- Building Story Name
  {8280fd0c-a3f0-474c-92f0-82f44ee94792}, !- Thermal Zone Name
  ,                                       !- Part of Total Floor Area
  ,                                       !- Design Specification Outdoor Air Object Name
  {2e5da045-b876-4863-b843-f879e506f0a6}; !- Building Unit Name

OS:Surface,
  {5df656e1-1d1d-49c4-9dc3-c31fa8a6a2df}, !- Handle
  Surface 7,                              !- Name
  Floor,                                  !- Surface Type
  {13f3525e-f3d6-4426-aeaa-6c5a803a48da}, !- Construction Name
  {9fd2093b-17d0-4c01-81ac-8a03ca55d5e8}, !- Space Name
  Surface,                                !- Outside Boundary Condition
  {8ebe2738-c2e9-4812-9e8d-506625575dc2}, !- Outside Boundary Condition Object
  NoSun,                                  !- Sun Exposure
  NoWind,                                 !- Wind Exposure
  ,                                       !- View Factor to Ground
  ,                                       !- Number of Vertices
  0, 0, 0,                                !- X,Y,Z Vertex 1 {m}
  0, 7.18420489685532, 0,                 !- X,Y,Z Vertex 2 {m}
  12.9315688143396, 7.18420489685532, 0,  !- X,Y,Z Vertex 3 {m}
  12.9315688143396, 0, 0;                 !- X,Y,Z Vertex 4 {m}

OS:Surface,
  {e6cbcf79-1399-43c3-bded-3e7ec0803a4b}, !- Handle
  Surface 8,                              !- Name
  Wall,                                   !- Surface Type
  {96f034a7-3b78-41fd-9167-7c369417c71d}, !- Construction Name
  {9fd2093b-17d0-4c01-81ac-8a03ca55d5e8}, !- Space Name
  Outdoors,                               !- Outside Boundary Condition
  ,                                       !- Outside Boundary Condition Object
  SunExposed,                             !- Sun Exposure
  WindExposed,                            !- Wind Exposure
  ,                                       !- View Factor to Ground
  ,                                       !- Number of Vertices
  0, 7.18420489685532, 2.4384,            !- X,Y,Z Vertex 1 {m}