!- NOTE: Auto-generated from /test/osw_files/SFD_HVACSizing_Equip_UnitHeater_Autosize.osw

OS:Version,
  {2bdb46fb-017d-4c04-b787-adf6c87149d3}, !- Handle
  2.9.1;                                  !- Version Identifier

OS:SimulationControl,
  {aa3caa4f-276d-44d3-abb1-9ac138248ee0}, !- Handle
  ,                                       !- Do Zone Sizing Calculation
  ,                                       !- Do System Sizing Calculation
  ,                                       !- Do Plant Sizing Calculation
  No;                                     !- Run Simulation for Sizing Periods

OS:Timestep,
  {3e127dd2-9e16-4ba2-9ca8-14ebb94fb741}, !- Handle
  6;                                      !- Number of Timesteps per Hour

OS:ShadowCalculation,
  {aa3c4b89-1118-4420-be8a-e6659f5c9b7a}, !- Handle
  20,                                     !- Calculation Frequency
  200;                                    !- Maximum Figures in Shadow Overlap Calculations

OS:SurfaceConvectionAlgorithm:Outside,
  {9ce9c70b-2c46-454c-9415-99ef5b29c184}, !- Handle
  DOE-2;                                  !- Algorithm

OS:SurfaceConvectionAlgorithm:Inside,
  {13351d81-7ca0-4824-af8e-5fa6ead75b9b}, !- Handle
  TARP;                                   !- Algorithm

OS:ZoneCapacitanceMultiplier:ResearchSpecial,
  {8830e71c-d353-4e2c-bfac-cb1d5eae2d86}, !- Handle
  ,                                       !- Temperature Capacity Multiplier
  15,                                     !- Humidity Capacity Multiplier
  ;                                       !- Carbon Dioxide Capacity Multiplier

OS:RunPeriod,
  {86d35868-cb58-4693-a60c-4324f75dde18}, !- Handle
  Run Period 1,                           !- Name
  1,                                      !- Begin Month
  1,                                      !- Begin Day of Month
  12,                                     !- End Month
  31,                                     !- End Day of Month
  ,                                       !- Use Weather File Holidays and Special Days
  ,                                       !- Use Weather File Daylight Saving Period
  ,                                       !- Apply Weekend Holiday Rule
  ,                                       !- Use Weather File Rain Indicators
  ,                                       !- Use Weather File Snow Indicators
  ;                                       !- Number of Times Runperiod to be Repeated

OS:YearDescription,
  {db86b61f-d52f-47ee-b560-1d690091fefe}, !- Handle
  2007,                                   !- Calendar Year
  ,                                       !- Day of Week for Start Day
  ;                                       !- Is Leap Year

OS:WeatherFile,
  {66f0e86c-eb5c-4038-9a5b-a696f38be2e5}, !- Handle
  Denver Intl Ap,                         !- City
  CO,                                     !- State Province Region
  USA,                                    !- Country
  TMY3,                                   !- Data Source
  725650,                                 !- WMO Number
  39.83,                                  !- Latitude {deg}
  -104.65,                                !- Longitude {deg}
  -7,                                     !- Time Zone {hr}
  1650,                                   !- Elevation {m}
  file:../weather/USA_CO_Denver.Intl.AP.725650_TMY3.epw, !- Url
  E23378AA;                               !- Checksum

OS:AdditionalProperties,
  {e11a2102-b7c4-46e3-8c37-dae17c1c8e87}, !- Handle
  {66f0e86c-eb5c-4038-9a5b-a696f38be2e5}, !- Object Name
  EPWHeaderCity,                          !- Feature Name 1
  String,                                 !- Feature Data Type 1
  Denver Intl Ap,                         !- Feature Value 1
  EPWHeaderState,                         !- Feature Name 2
  String,                                 !- Feature Data Type 2
  CO,                                     !- Feature Value 2
  EPWHeaderCountry,                       !- Feature Name 3
  String,                                 !- Feature Data Type 3
  USA,                                    !- Feature Value 3
  EPWHeaderDataSource,                    !- Feature Name 4
  String,                                 !- Feature Data Type 4
  TMY3,                                   !- Feature Value 4
  EPWHeaderStation,                       !- Feature Name 5
  String,                                 !- Feature Data Type 5
  725650,                                 !- Feature Value 5
  EPWHeaderLatitude,                      !- Feature Name 6
  Double,                                 !- Feature Data Type 6
  39.829999999999998,                     !- Feature Value 6
  EPWHeaderLongitude,                     !- Feature Name 7
  Double,                                 !- Feature Data Type 7
  -104.65000000000001,                    !- Feature Value 7
  EPWHeaderTimezone,                      !- Feature Name 8
  Double,                                 !- Feature Data Type 8
  -7,                                     !- Feature Value 8
  EPWHeaderAltitude,                      !- Feature Name 9
  Double,                                 !- Feature Data Type 9
  5413.3858267716532,                     !- Feature Value 9
  EPWHeaderLocalPressure,                 !- Feature Name 10
  Double,                                 !- Feature Data Type 10
  0.81937567683596546,                    !- Feature Value 10
  EPWHeaderRecordsPerHour,                !- Feature Name 11
  Double,                                 !- Feature Data Type 11
  0,                                      !- Feature Value 11
  EPWDataAnnualAvgDrybulb,                !- Feature Name 12
  Double,                                 !- Feature Data Type 12
  51.575616438356228,                     !- Feature Value 12
  EPWDataAnnualMinDrybulb,                !- Feature Name 13
  Double,                                 !- Feature Data Type 13
  -2.9200000000000017,                    !- Feature Value 13
  EPWDataAnnualMaxDrybulb,                !- Feature Name 14
  Double,                                 !- Feature Data Type 14
  104,                                    !- Feature Value 14
  EPWDataCDD50F,                          !- Feature Name 15
  Double,                                 !- Feature Data Type 15
  3072.2925000000005,                     !- Feature Value 15
  EPWDataCDD65F,                          !- Feature Name 16
  Double,                                 !- Feature Data Type 16
  883.62000000000035,                     !- Feature Value 16
  EPWDataHDD50F,                          !- Feature Name 17
  Double,                                 !- Feature Data Type 17
  2497.1925000000001,                     !- Feature Value 17
  EPWDataHDD65F,                          !- Feature Name 18
  Double,                                 !- Feature Data Type 18
  5783.5200000000013,                     !- Feature Value 18
  EPWDataAnnualAvgWindspeed,              !- Feature Name 19
  Double,                                 !- Feature Data Type 19
  3.9165296803649667,                     !- Feature Value 19
  EPWDataMonthlyAvgDrybulbs,              !- Feature Name 20
  String,                                 !- Feature Data Type 20
  33.4191935483871&#4431.90142857142857&#4443.02620967741937&#4442.48624999999999&#4459.877741935483854&#4473.57574999999997&#4472.07975806451608&#4472.70008064516134&#4466.49200000000006&#4450.079112903225806&#4437.218250000000005&#4434.582177419354835, !- Feature Value 20
  EPWDataGroundMonthlyTemps,              !- Feature Name 21
  String,                                 !- Feature Data Type 21
  44.08306285945173&#4440.89570904991865&#4440.64045432632048&#4442.153016571250646&#4448.225111118704206&#4454.268919273837525&#4459.508577937551024&#4462.82777283423508&#4463.10975667174995&#4460.41014950381947&#4455.304105212311526&#4449.445696474514364, !- Feature Value 21
  EPWDataWSF,                             !- Feature Name 22
  Double,                                 !- Feature Data Type 22
  0.58999999999999997,                    !- Feature Value 22
  EPWDataMonthlyAvgDailyHighDrybulbs,     !- Feature Name 23
  String,                                 !- Feature Data Type 23
  47.41032258064516&#4446.58642857142857&#4455.15032258064517&#4453.708&#4472.80193548387098&#4488.67600000000002&#4486.1858064516129&#4485.87225806451613&#4482.082&#4463.18064516129033&#4448.73400000000001&#4448.87935483870968, !- Feature Value 23
  EPWDataMonthlyAvgDailyLowDrybulbs,      !- Feature Name 24
  String,                                 !- Feature Data Type 24
  19.347741935483874&#4419.856428571428573&#4430.316129032258065&#4431.112&#4447.41612903225806&#4457.901999999999994&#4459.063870967741934&#4460.956774193548384&#4452.352000000000004&#4438.41612903225806&#4427.002000000000002&#4423.02903225806451, !- Feature Value 24
  EPWDesignHeatingDrybulb,                !- Feature Name 25
  Double,                                 !- Feature Data Type 25
  12.02,                                  !- Feature Value 25
  EPWDesignHeatingWindspeed,              !- Feature Name 26
  Double,                                 !- Feature Data Type 26
  2.8062500000000004,                     !- Feature Value 26
  EPWDesignCoolingDrybulb,                !- Feature Name 27
  Double,                                 !- Feature Data Type 27
  91.939999999999998,                     !- Feature Value 27
  EPWDesignCoolingWetbulb,                !- Feature Name 28
  Double,                                 !- Feature Data Type 28
  59.95131430195849,                      !- Feature Value 28
  EPWDesignCoolingHumidityRatio,          !- Feature Name 29
  Double,                                 !- Feature Data Type 29
  0.0059161086834698092,                  !- Feature Value 29
  EPWDesignCoolingWindspeed,              !- Feature Name 30
  Double,                                 !- Feature Data Type 30
  3.7999999999999989,                     !- Feature Value 30
  EPWDesignDailyTemperatureRange,         !- Feature Name 31
  Double,                                 !- Feature Data Type 31
  24.915483870967748,                     !- Feature Value 31
  EPWDesignDehumidDrybulb,                !- Feature Name 32
  Double,                                 !- Feature Data Type 32
  67.996785714285721,                     !- Feature Value 32
  EPWDesignDehumidHumidityRatio,          !- Feature Name 33
  Double,                                 !- Feature Data Type 33
  0.012133744170488724,                   !- Feature Value 33
  EPWDesignCoolingDirectNormal,           !- Feature Name 34
  Double,                                 !- Feature Data Type 34
  985,                                    !- Feature Value 34
  EPWDesignCoolingDiffuseHorizontal,      !- Feature Name 35
  Double,                                 !- Feature Data Type 35
  84;                                     !- Feature Value 35

OS:Site,
  {7a22aa62-baff-4eed-bc56-134226388ed2}, !- Handle
  Denver Intl Ap_CO_USA,                  !- Name
  39.83,                                  !- Latitude {deg}
  -104.65,                                !- Longitude {deg}
  -7,                                     !- Time Zone {hr}
  1650,                                   !- Elevation {m}
  Suburbs;                                !- Terrain

OS:ClimateZones,
  {3b379d0b-531b-4c1e-8c33-f0f6dca1001f}, !- Handle
  ,                                       !- Active Institution
  ,                                       !- Active Year
  ,                                       !- Climate Zone Institution Name 1
  ,                                       !- Climate Zone Document Name 1
  ,                                       !- Climate Zone Document Year 1
  ,                                       !- Climate Zone Value 1
  Building America,                       !- Climate Zone Institution Name 2
  ,                                       !- Climate Zone Document Name 2
  0,                                      !- Climate Zone Document Year 2
  Cold;                                   !- Climate Zone Value 2

OS:Site:WaterMainsTemperature,
  {06f8e21e-4900-4238-beb3-f0fe114631d1}, !- Handle
  Correlation,                            !- Calculation Method
  ,                                       !- Temperature Schedule Name
  10.8753424657535,                       !- Annual Average Outdoor Air Temperature {C}
  23.1524007936508;                       !- Maximum Difference In Monthly Average Outdoor Air Temperatures {deltaC}

OS:RunPeriodControl:DaylightSavingTime,
  {9939ec6f-792f-4492-bdd7-d56e946f9dec}, !- Handle
  4/7,                                    !- Start Date
  10/26;                                  !- End Date

OS:Site:GroundTemperature:Deep,
  {49f50308-868d-4691-84d7-67aae01db231}, !- Handle
  10.8753424657535,                       !- January Deep Ground Temperature {C}
  10.8753424657535,                       !- February Deep Ground Temperature {C}
  10.8753424657535,                       !- March Deep Ground Temperature {C}
  10.8753424657535,                       !- April Deep Ground Temperature {C}
  10.8753424657535,                       !- May Deep Ground Temperature {C}
  10.8753424657535,                       !- June Deep Ground Temperature {C}
  10.8753424657535,                       !- July Deep Ground Temperature {C}
  10.8753424657535,                       !- August Deep Ground Temperature {C}
  10.8753424657535,                       !- September Deep Ground Temperature {C}
  10.8753424657535,                       !- October Deep Ground Temperature {C}
  10.8753424657535,                       !- November Deep Ground Temperature {C}
  10.8753424657535;                       !- December Deep Ground Temperature {C}

OS:ThermalZone,
  {b4a216c9-ad34-46f8-acd3-1ad2ad9af2a2}, !- Handle
  living zone,                            !- Name
  ,                                       !- Multiplier
  ,                                       !- Ceiling Height {m}
  ,                                       !- Volume {m3}
  ,                                       !- Floor Area {m2}
  ,                                       !- Zone Inside Convection Algorithm
  ,                                       !- Zone Outside Convection Algorithm
  ,                                       !- Zone Conditioning Equipment List Name
  {b75482f8-2824-4367-a053-1605102df900}, !- Zone Air Inlet Port List
  {690bd0e8-dabd-45ce-a33e-4b26b2d1baeb}, !- Zone Air Exhaust Port List
  {46505cdd-998b-4010-8583-255136dba61d}, !- Zone Air Node Name
  {5fe74b5a-eee0-4c81-b1ca-fff9329d20e1}, !- Zone Return Air Port List
  ,                                       !- Primary Daylighting Control Name
  ,                                       !- Fraction of Zone Controlled by Primary Daylighting Control
  ,                                       !- Secondary Daylighting Control Name
  ,                                       !- Fraction of Zone Controlled by Secondary Daylighting Control
  ,                                       !- Illuminance Map Name
  ,                                       !- Group Rendering Name
  {6519242a-52c9-4674-ab6a-970cfe7229c7}, !- Thermostat Name
  No;                                     !- Use Ideal Air Loads

OS:Node,
  {f64513c2-2ea3-405e-bcac-239191e4b3b7}, !- Handle
  Node 1,                                 !- Name
  {46505cdd-998b-4010-8583-255136dba61d}, !- Inlet Port
  ;                                       !- Outlet Port

OS:Connection,
  {46505cdd-998b-4010-8583-255136dba61d}, !- Handle
  {8eb68eb6-8f10-408c-ae17-7740426af01e}, !- Name
  {b4a216c9-ad34-46f8-acd3-1ad2ad9af2a2}, !- Source Object
  11,                                     !- Outlet Port
  {f64513c2-2ea3-405e-bcac-239191e4b3b7}, !- Target Object
  2;                                      !- Inlet Port

OS:PortList,
  {b75482f8-2824-4367-a053-1605102df900}, !- Handle
  {0820fd78-1c81-41b7-9562-c2e795b2ad98}, !- Name
  {b4a216c9-ad34-46f8-acd3-1ad2ad9af2a2}, !- HVAC Component
  {0f711ef7-48fd-428f-b66c-c0074a06fd0d}; !- Port 1

OS:PortList,
  {690bd0e8-dabd-45ce-a33e-4b26b2d1baeb}, !- Handle
  {cd93407f-6db2-49de-b568-e06a6f924a49}, !- Name
  {b4a216c9-ad34-46f8-acd3-1ad2ad9af2a2}, !- HVAC Component
  {c0e6bca7-4506-4813-85fe-0753ddbcd3b9}; !- Port 1

OS:PortList,
  {5fe74b5a-eee0-4c81-b1ca-fff9329d20e1}, !- Handle
  {eeda822c-398b-49d8-a109-28703ba4ebac}, !- Name
  {b4a216c9-ad34-46f8-acd3-1ad2ad9af2a2}; !- HVAC Component

OS:Sizing:Zone,
  {0ae75357-17cb-4407-a311-7b91795ce551}, !- Handle
  {b4a216c9-ad34-46f8-acd3-1ad2ad9af2a2}, !- Zone or ZoneList Name
  SupplyAirTemperature,                   !- Zone Cooling Design Supply Air Temperature Input Method
  14,                                     !- Zone Cooling Design Supply Air Temperature {C}
  11.11,                                  !- Zone Cooling Design Supply Air Temperature Difference {deltaC}
  SupplyAirTemperature,                   !- Zone Heating Design Supply Air Temperature Input Method
  40,                                     !- Zone Heating Design Supply Air Temperature {C}
  11.11,                                  !- Zone Heating Design Supply Air Temperature Difference {deltaC}
  0.0085,                                 !- Zone Cooling Design Supply Air Humidity Ratio {kg-H2O/kg-air}
  0.008,                                  !- Zone Heating Design Supply Air Humidity Ratio {kg-H2O/kg-air}
  ,                                       !- Zone Heating Sizing Factor
  ,                                       !- Zone Cooling Sizing Factor
  DesignDay,                              !- Cooling Design Air Flow Method
  ,                                       !- Cooling Design Air Flow Rate {m3/s}
  ,                                       !- Cooling Minimum Air Flow per Zone Floor Area {m3/s-m2}
  ,                                       !- Cooling Minimum Air Flow {m3/s}
  ,                                       !- Cooling Minimum Air Flow Fraction
  DesignDay,                              !- Heating Design Air Flow Method
  ,                                       !- Heating Design Air Flow Rate {m3/s}
  ,                                       !- Heating Maximum Air Flow per Zone Floor Area {m3/s-m2}
  ,                                       !- Heating Maximum Air Flow {m3/s}
  ,                                       !- Heating Maximum Air Flow Fraction
  ,                                       !- Design Zone Air Distribution Effectiveness in Cooling Mode
  ,                                       !- Design Zone Air Distribution Effectiveness in Heating Mode
  No,                                     !- Account for Dedicated Outdoor Air System
  NeutralSupplyAir,                       !- Dedicated Outdoor Air System Control Strategy
  autosize,                               !- Dedicated Outdoor Air Low Setpoint Temperature for Design {C}
  autosize;                               !- Dedicated Outdoor Air High Setpoint Temperature for Design {C}

OS:ZoneHVAC:EquipmentList,
  {e5454dca-6c90-4acf-b154-a160792e7c2e}, !- Handle
  Zone HVAC Equipment List 1,             !- Name
  {b4a216c9-ad34-46f8-acd3-1ad2ad9af2a2}, !- Thermal Zone
  SequentialLoad,                         !- Load Distribution Scheme
  {3af788b3-7496-4996-b484-fc58571ac9a6}, !- Zone Equipment 1
  1,                                      !- Zone Equipment Cooling Sequence 1
  1,                                      !- Zone Equipment Heating or No-Load Sequence 1
  ,                                       !- Zone Equipment Sequential Cooling Fraction Schedule Name 1
  ;                                       !- Zone Equipment Sequential Heating Fraction Schedule Name 1

OS:ThermalZone,
  {eacc79fb-3389-4f03-aef2-acf09c2b4f26}, !- Handle
  garage zone,                            !- Name
  ,                                       !- Multiplier
  ,                                       !- Ceiling Height {m}
  ,                                       !- Volume {m3}
  ,                                       !- Floor Area {m2}
  ,                                       !- Zone Inside Convection Algorithm
  ,                                       !- Zone Outside Convection Algorithm
  ,                                       !- Zone Conditioning Equipment List Name
  {17fab07c-2104-41ea-b124-77357a35ce54}, !- Zone Air Inlet Port List
  {b4f233ad-0386-4fff-8897-7bdc0de55686}, !- Zone Air Exhaust Port List
  {01840e3e-648e-4dfb-b632-f6656005bb67}, !- Zone Air Node Name
  {0004d234-280c-48b4-8c76-43c3cecf0bcd}, !- Zone Return Air Port List
  ,                                       !- Primary Daylighting Control Name
  ,                                       !- Fraction of Zone Controlled by Primary Daylighting Control
  ,                                       !- Secondary Daylighting Control Name
  ,                                       !- Fraction of Zone Controlled by Secondary Daylighting Control
  ,                                       !- Illuminance Map Name
  ,                                       !- Group Rendering Name
  ,                                       !- Thermostat Name
  No;                                     !- Use Ideal Air Loads

OS:Node,
  {49ceda19-55a5-43ff-bc54-a0cefaa568ba}, !- Handle
  Node 2,                                 !- Name
  {01840e3e-648e-4dfb-b632-f6656005bb67}, !- Inlet Port
  ;                                       !- Outlet Port

OS:Connection,
  {01840e3e-648e-4dfb-b632-f6656005bb67}, !- Handle
  {05e41e95-3bc1-4e79-88ad-15e39b5c0bcd}, !- Name
  {eacc79fb-3389-4f03-aef2-acf09c2b4f26}, !- Source Object
  11,                                     !- Outlet Port
  {49ceda19-55a5-43ff-bc54-a0cefaa568ba}, !- Target Object
  2;                                      !- Inlet Port

OS:PortList,
  {17fab07c-2104-41ea-b124-77357a35ce54}, !- Handle
  {3ec95f51-d3c0-4b9c-8fa9-349503242dc8}, !- Name
  {eacc79fb-3389-4f03-aef2-acf09c2b4f26}; !- HVAC Component

OS:PortList,
  {b4f233ad-0386-4fff-8897-7bdc0de55686}, !- Handle
  {e4488039-7768-4bce-89a0-5e491f2afe9e}, !- Name
  {eacc79fb-3389-4f03-aef2-acf09c2b4f26}; !- HVAC Component

OS:PortList,
  {0004d234-280c-48b4-8c76-43c3cecf0bcd}, !- Handle
  {ecd90d09-4180-4ec6-9da0-f88ae1d01685}, !- Name
  {eacc79fb-3389-4f03-aef2-acf09c2b4f26}; !- HVAC Component

OS:Sizing:Zone,
  {64cf96e5-09c0-470f-bb37-539a62c38e35}, !- Handle
  {eacc79fb-3389-4f03-aef2-acf09c2b4f26}, !- Zone or ZoneList Name
  SupplyAirTemperature,                   !- Zone Cooling Design Supply Air Temperature Input Method
  14,                                     !- Zone Cooling Design Supply Air Temperature {C}
  11.11,                                  !- Zone Cooling Design Supply Air Temperature Difference {deltaC}
  SupplyAirTemperature,                   !- Zone Heating Design Supply Air Temperature Input Method
  40,                                     !- Zone Heating Design Supply Air Temperature {C}
  11.11,                                  !- Zone Heating Design Supply Air Temperature Difference {deltaC}
  0.0085,                                 !- Zone Cooling Design Supply Air Humidity Ratio {kg-H2O/kg-air}
  0.008,                                  !- Zone Heating Design Supply Air Humidity Ratio {kg-H2O/kg-air}
  ,                                       !- Zone Heating Sizing Factor
  ,                                       !- Zone Cooling Sizing Factor
  DesignDay,                              !- Cooling Design Air Flow Method
  ,                                       !- Cooling Design Air Flow Rate {m3/s}
  ,                                       !- Cooling Minimum Air Flow per Zone Floor Area {m3/s-m2}
  ,                                       !- Cooling Minimum Air Flow {m3/s}
  ,                                       !- Cooling Minimum Air Flow Fraction
  DesignDay,                              !- Heating Design Air Flow Method
  ,                                       !- Heating Design Air Flow Rate {m3/s}
  ,                                       !- Heating Maximum Air Flow per Zone Floor Area {m3/s-m2}
  ,                                       !- Heating Maximum Air Flow {m3/s}
  ,                                       !- Heating Maximum Air Flow Fraction
  ,                                       !- Design Zone Air Distribution Effectiveness in Cooling Mode
  ,                                       !- Design Zone Air Distribution Effectiveness in Heating Mode
  No,                                     !- Account for Dedicated Outdoor Air System
  NeutralSupplyAir,                       !- Dedicated Outdoor Air System Control Strategy
  autosize,                               !- Dedicated Outdoor Air Low Setpoint Temperature for Design {C}
  autosize;                               !- Dedicated Outdoor Air High Setpoint Temperature for Design {C}

OS:ZoneHVAC:EquipmentList,
  {1b91c39d-1da9-439f-8c20-7918a2783037}, !- Handle
  Zone HVAC Equipment List 2,             !- Name
  {eacc79fb-3389-4f03-aef2-acf09c2b4f26}; !- Thermal Zone

OS:Space,
  {e32d3c63-dbc2-4667-8c1a-4e94a4bfa656}, !- Handle
  garage space,                           !- Name
  {19dd2e92-8b16-4d1d-981e-0a75a01612a6}, !- Space Type Name
  ,                                       !- Default Construction Set Name
  ,                                       !- Default Schedule Set Name
  -0,                                     !- Direction of Relative North {deg}
  0,                                      !- X Origin {m}
  0,                                      !- Y Origin {m}
  0,                                      !- Z Origin {m}
  ,                                       !- Building Story Name
  {eacc79fb-3389-4f03-aef2-acf09c2b4f26}; !- Thermal Zone Name

OS:Surface,
  {f3fbb7bb-bcf9-41de-b268-3cab9ff7c2c1}, !- Handle
  Surface 1,                              !- Name
  Floor,                                  !- Surface Type
  {311a9d17-a475-4a5b-a883-86463a5c68d5}, !- Construction Name
  {e32d3c63-dbc2-4667-8c1a-4e94a4bfa656}, !- Space Name
  Foundation,                             !- Outside Boundary Condition
  {3be4b322-3251-48a1-8d9b-1d4adcbb59e6}, !- Outside Boundary Condition Object
  NoSun,                                  !- Sun Exposure
  NoWind,                                 !- Wind Exposure
  ,                                       !- View Factor to Ground
  ,                                       !- Number of Vertices
  8.91701625975123, -3.048, 0,            !- X,Y,Z Vertex 1 {m}
  8.91701625975123, 3.048, 0,             !- X,Y,Z Vertex 2 {m}
  12.5746162597512, 3.048, 0,             !- X,Y,Z Vertex 3 {m}
  12.5746162597512, -3.048, 0;            !- X,Y,Z Vertex 4 {m}

OS:Surface,
  {bc5a9dff-2d80-49f9-b6e4-f28d970730d5}, !- Handle
  Surface 2,                              !- Name
  Wall,                                   !- Surface Type
  {6468dadc-6051-437c-9bb1-8ac3802a8b13}, !- Construction Name
  {e32d3c63-dbc2-4667-8c1a-4e94a4bfa656}, !- Space Name
  Surface,                                !- Outside Boundary Condition
  {211d785a-b6e7-4228-bf4e-404dfeddf21f}, !- Outside Boundary Condition Object
  NoSun,                                  !- Sun Exposure
  NoWind,                                 !- Wind Exposure
  ,                                       !- View Factor to Ground
  ,                                       !- Number of Vertices
  8.91701625975123, 3.048, 2.4384,        !- X,Y,Z Vertex 1 {m}
  8.91701625975123, 3.048, 0,             !- X,Y,Z Vertex 2 {m}
  8.91701625975123, 0, 0,                 !- X,Y,Z Vertex 3 {m}
  8.91701625975123, 0, 2.4384;            !- X,Y,Z Vertex 4 {m}

OS:Surface,
  {3fecf9fd-3ffc-46e2-b595-7c905870ed16}, !- Handle
  Surface 3,                              !- Name
  Wall,                                   !- Surface Type
  {6468dadc-6051-437c-9bb1-8ac3802a8b13}, !- Construction Name
  {e32d3c63-dbc2-4667-8c1a-4e94a4bfa656}, !- Space Name
  Surface,                                !- Outside Boundary Condition
  {65efb566-d733-4a6c-ba47-50ecd1b92b88}, !- Outside Boundary Condition Object
  NoSun,                                  !- Sun Exposure
  NoWind,                                 !- Wind Exposure
  ,                                       !- View Factor to Ground
  ,                                       !- Number of Vertices
  12.5746162597512, 3.048, 2.4384,        !- X,Y,Z Vertex 1 {m}
  12.5746162597512, 3.048, 0,             !- X,Y,Z Vertex 2 {m}
  8.91701625975123, 3.048, 0,             !- X,Y,Z Vertex 3 {m}
  8.91701625975123, 3.048, 2.4384;        !- X,Y,Z Vertex 4 {m}

OS:Surface,
  {bc19583a-5054-44ac-85d5-27f510b02fd4}, !- Handle
  Surface 4,                              !- Name
  Wall,                                   !- Surface Type
  {6a3fb4ac-ed1a-49d3-b9f8-c97a1eef609e}, !- Construction Name
  {e32d3c63-dbc2-4667-8c1a-4e94a4bfa656}, !- Space Name
  Outdoors,                               !- Outside Boundary Condition
  ,                                       !- Outside Boundary Condition Object
  SunExposed,                             !- Sun Exposure
  WindExposed,                            !- Wind Exposure
  ,                                       !- View Factor to Ground
  ,                                       !- Number of Vertices
  12.5746162597512, -3.048, 2.4384,       !- X,Y,Z Vertex 1 {m}
  12.5746162597512, -3.048, 0,            !- X,Y,Z Vertex 2 {m}
  12.5746162597512, 3.048, 0,             !- X,Y,Z Vertex 3 {m}
  12.5746162597512, 3.048, 2.4384;        !- X,Y,Z Vertex 4 {m}

OS:Surface,
  {fe013b19-9ce6-4e28-9da6-735eb12242e5}, !- Handle
  Surface 5,                              !- Name
  Wall,                                   !- Surface Type
  {6a3fb4ac-ed1a-49d3-b9f8-c97a1eef609e}, !- Construction Name
  {e32d3c63-dbc2-4667-8c1a-4e94a4bfa656}, !- Space Name
  Outdoors,                               !- Outside Boundary Condition
  ,                                       !- Outside Boundary Condition Object