!- NOTE: Auto-generated from /test/osw_files/SFD_2000sqft_2story_FB_GRG_UA_3Beds_2Baths_Denver_WHTankless.osw

OS:Version,
  {8623ca75-ae69-49e0-9c47-50ccde3ab46f}, !- Handle
  2.8.0;                                  !- Version Identifier

OS:Building,
  {7c277dd1-10cd-41fb-bcfe-61d7f96e54e6}, !- Handle
  Building 1,                             !- Name
  ,                                       !- Building Sector Type
  0,                                      !- North Axis {deg}
  ,                                       !- Nominal Floor to Floor Height {m}
  ,                                       !- Space Type Name
  ,                                       !- Default Construction Set Name
  ,                                       !- Default Schedule Set Name
  3,                                      !- Standards Number of Stories
  2,                                      !- Standards Number of Above Ground Stories
  ,                                       !- Standards Template
  singlefamilydetached,                   !- Standards Building Type
  1;                                      !- Standards Number of Living Units

OS:Facility,
  {3dc7e804-19e1-466f-8e97-bc1d9e073ae6}; !- Handle

OS:Site,
  {d517963a-eb44-4571-bffc-2da03dda9612}, !- Handle
  Denver Intl Ap_CO_USA,                  !- Name
  39.83,                                  !- Latitude {deg}
  -104.65,                                !- Longitude {deg}
  -7,                                     !- Time Zone {hr}
  1650,                                   !- Elevation {m}
  ;                                       !- Terrain

OS:SimulationControl,
  {5567d48b-b97b-40ef-b7bf-8bdb50024038}, !- Handle
  ,                                       !- Do Zone Sizing Calculation
  ,                                       !- Do System Sizing Calculation
  ,                                       !- Do Plant Sizing Calculation
  No;                                     !- Run Simulation for Sizing Periods

OS:Sizing:Parameters,
  {e3c56b03-1822-4837-8f27-75fa65060521}, !- Handle
  1.25,                                   !- Heating Sizing Factor
  1.15;                                   !- Cooling Sizing Factor

OS:Timestep,
  {890c4570-9a6c-415f-809a-0e6710eb3e2b}, !- Handle
  6;                                      !- Number of Timesteps per Hour

OS:ShadowCalculation,
  {dd1a01db-8bba-40dc-a891-6793b044c77a}, !- Handle
  20,                                     !- Calculation Frequency
  200;                                    !- Maximum Figures in Shadow Overlap Calculations

OS:HeatBalanceAlgorithm,
  {0f93380f-370b-45d8-838b-d7aac4ab257c}, !- Handle
  ConductionTransferFunction,             !- Algorithm
  200;                                    !- Surface Temperature Upper Limit {C}

OS:RunPeriod,
  {fcdbe845-88c2-4469-97e9-2b7fdd32069c}, !- Handle
  Run Period 1,                           !- Name
  1,                                      !- Begin Month
  1,                                      !- Begin Day of Month
  12,                                     !- End Month
  31,                                     !- End Day of Month
  ,                                       !- Use Weather File Holidays and Special Days
  ,                                       !- Use Weather File Daylight Saving Period
  ,                                       !- Apply Weekend Holiday Rule
  ,                                       !- Use Weather File Rain Indicators
  ,                                       !- Use Weather File Snow Indicators
  ;                                       !- Number of Times Runperiod to be Repeated

OS:LifeCycleCost:Parameters,
  {c8884326-115f-4ea2-b6bc-b7d95fcd2470}, !- Handle
  ,                                       !- Analysis Type
  ,                                       !- Discounting Convention
  ,                                       !- Inflation Approach
  ,                                       !- Real Discount Rate
  ,                                       !- Nominal Discount Rate
  ,                                       !- Inflation
  ,                                       !- Base Date Month
  ,                                       !- Base Date Year
  ,                                       !- Service Date Month
  ,                                       !- Service Date Year
  ;                                       !- Length of Study Period in Years

OS:SurfaceConvectionAlgorithm:Outside,
  {3b42104b-0124-4841-afb5-31c4b9acf0dd}, !- Handle
  DOE-2;                                  !- Algorithm

OS:SurfaceConvectionAlgorithm:Inside,
  {33501487-8f37-4a69-93b9-5ecf66addfa7}, !- Handle
  TARP;                                   !- Algorithm

OS:ZoneCapacitanceMultiplier:ResearchSpecial,
  {39384e3c-0cf8-4f27-a732-e6c076558afc}, !- Handle
  ,                                       !- Temperature Capacity Multiplier
  15,                                     !- Humidity Capacity Multiplier
  ;                                       !- Carbon Dioxide Capacity Multiplier

OS:ThermalZone,
  {813c0712-1f31-48a3-92a7-8f8f009222d9}, !- Handle
  living zone,                            !- Name
  ,                                       !- Multiplier
  ,                                       !- Ceiling Height {m}
  ,                                       !- Volume {m3}
  ,                                       !- Floor Area {m2}
  ,                                       !- Zone Inside Convection Algorithm
  ,                                       !- Zone Outside Convection Algorithm
  ,                                       !- Zone Conditioning Equipment List Name
  {15ff86bb-99b5-43fb-9502-ef7428319f54}, !- Zone Air Inlet Port List
  {603eff18-b021-4422-88a2-01497de39ac9}, !- Zone Air Exhaust Port List
  {2504f748-65b7-4ab6-9f7d-ed38966c5a0c}, !- Zone Air Node Name
  {bf663cc3-c79a-4fca-ada0-0f99c1a4167e}, !- Zone Return Air Port List
  ,                                       !- Primary Daylighting Control Name
  ,                                       !- Fraction of Zone Controlled by Primary Daylighting Control
  ,                                       !- Secondary Daylighting Control Name
  ,                                       !- Fraction of Zone Controlled by Secondary Daylighting Control
  ,                                       !- Illuminance Map Name
  ,                                       !- Group Rendering Name
  ,                                       !- Thermostat Name
  No;                                     !- Use Ideal Air Loads

OS:Node,
  {6ed6b653-f68a-4b10-ba70-f358cc36af22}, !- Handle
  Node 1,                                 !- Name
  {2504f748-65b7-4ab6-9f7d-ed38966c5a0c}, !- Inlet Port
  ;                                       !- Outlet Port

OS:Connection,
  {2504f748-65b7-4ab6-9f7d-ed38966c5a0c}, !- Handle
  {f7d7cd96-44cd-43a1-bf31-6cc7b8ad5d46}, !- Name
  {813c0712-1f31-48a3-92a7-8f8f009222d9}, !- Source Object
  11,                                     !- Outlet Port
  {6ed6b653-f68a-4b10-ba70-f358cc36af22}, !- Target Object
  2;                                      !- Inlet Port

OS:PortList,
  {15ff86bb-99b5-43fb-9502-ef7428319f54}, !- Handle
  {d95352c0-f282-4cf4-b124-ee29bb6e3d5a}, !- Name
  {813c0712-1f31-48a3-92a7-8f8f009222d9}; !- HVAC Component

OS:PortList,
  {603eff18-b021-4422-88a2-01497de39ac9}, !- Handle
  {ad95a4fb-6d8b-4c87-aab3-f081c7380d86}, !- Name
  {813c0712-1f31-48a3-92a7-8f8f009222d9}; !- HVAC Component

OS:PortList,
  {bf663cc3-c79a-4fca-ada0-0f99c1a4167e}, !- Handle
  {2c4b82b7-32c2-4b8c-829b-ac89e1df2c73}, !- Name
  {813c0712-1f31-48a3-92a7-8f8f009222d9}; !- HVAC Component

OS:Sizing:Zone,
  {c9b6640e-2f19-446f-a670-55b122a17313}, !- Handle
  {813c0712-1f31-48a3-92a7-8f8f009222d9}, !- Zone or ZoneList Name
  SupplyAirTemperature,                   !- Zone Cooling Design Supply Air Temperature Input Method
  14,                                     !- Zone Cooling Design Supply Air Temperature {C}
  11.11,                                  !- Zone Cooling Design Supply Air Temperature Difference {deltaC}
  SupplyAirTemperature,                   !- Zone Heating Design Supply Air Temperature Input Method
  40,                                     !- Zone Heating Design Supply Air Temperature {C}
  11.11,                                  !- Zone Heating Design Supply Air Temperature Difference {deltaC}
  0.0085,                                 !- Zone Cooling Design Supply Air Humidity Ratio {kg-H2O/kg-air}
  0.008,                                  !- Zone Heating Design Supply Air Humidity Ratio {kg-H2O/kg-air}
  ,                                       !- Zone Heating Sizing Factor
  ,                                       !- Zone Cooling Sizing Factor
  DesignDay,                              !- Cooling Design Air Flow Method
  ,                                       !- Cooling Design Air Flow Rate {m3/s}
  ,                                       !- Cooling Minimum Air Flow per Zone Floor Area {m3/s-m2}
  ,                                       !- Cooling Minimum Air Flow {m3/s}
  ,                                       !- Cooling Minimum Air Flow Fraction
  DesignDay,                              !- Heating Design Air Flow Method
  ,                                       !- Heating Design Air Flow Rate {m3/s}
  ,                                       !- Heating Maximum Air Flow per Zone Floor Area {m3/s-m2}
  ,                                       !- Heating Maximum Air Flow {m3/s}
  ,                                       !- Heating Maximum Air Flow Fraction
  ,                                       !- Design Zone Air Distribution Effectiveness in Cooling Mode
  ,                                       !- Design Zone Air Distribution Effectiveness in Heating Mode
  No,                                     !- Account for Dedicated Outdoor Air System
  NeutralSupplyAir,                       !- Dedicated Outdoor Air System Control Strategy
  autosize,                               !- Dedicated Outdoor Air Low Setpoint Temperature for Design {C}
  autosize;                               !- Dedicated Outdoor Air High Setpoint Temperature for Design {C}

OS:ZoneHVAC:EquipmentList,
  {9a8471b1-5b3a-4d24-8b43-4622dd64e90a}, !- Handle
  Zone HVAC Equipment List 1,             !- Name
  {813c0712-1f31-48a3-92a7-8f8f009222d9}; !- Thermal Zone

OS:ThermalZone,
  {d5cabb3d-d1b6-46ce-9c2b-bd9fc58b2d2d}, !- Handle
  garage zone,                            !- Name
  ,                                       !- Multiplier
  ,                                       !- Ceiling Height {m}
  ,                                       !- Volume {m3}
  ,                                       !- Floor Area {m2}
  ,                                       !- Zone Inside Convection Algorithm
  ,                                       !- Zone Outside Convection Algorithm
  ,                                       !- Zone Conditioning Equipment List Name
  {cb29f1de-3d4c-4045-a227-735676578287}, !- Zone Air Inlet Port List
  {5b2bd66f-641b-4022-a0c5-a93ca20c6de7}, !- Zone Air Exhaust Port List
  {a849dfaa-ba2b-4710-847c-ff86ef29ca06}, !- Zone Air Node Name
  {83ba01d5-8c2d-45a2-a241-ec520cdc13d0}, !- Zone Return Air Port List
  ,                                       !- Primary Daylighting Control Name
  ,                                       !- Fraction of Zone Controlled by Primary Daylighting Control
  ,                                       !- Secondary Daylighting Control Name
  ,                                       !- Fraction of Zone Controlled by Secondary Daylighting Control
  ,                                       !- Illuminance Map Name
  ,                                       !- Group Rendering Name
  ,                                       !- Thermostat Name
  No;                                     !- Use Ideal Air Loads

OS:Node,
  {aae14067-f25c-4d47-9582-e400f0351ffe}, !- Handle
  Node 2,                                 !- Name
  {a849dfaa-ba2b-4710-847c-ff86ef29ca06}, !- Inlet Port
  ;                                       !- Outlet Port

OS:Connection,
  {a849dfaa-ba2b-4710-847c-ff86ef29ca06}, !- Handle
  {d0c88efb-47ac-40af-b247-244033a53086}, !- Name
  {d5cabb3d-d1b6-46ce-9c2b-bd9fc58b2d2d}, !- Source Object
  11,                                     !- Outlet Port
  {aae14067-f25c-4d47-9582-e400f0351ffe}, !- Target Object
  2;                                      !- Inlet Port

OS:PortList,
  {cb29f1de-3d4c-4045-a227-735676578287}, !- Handle
  {0684a286-fba4-4432-bcce-8c73a68296a3}, !- Name
  {d5cabb3d-d1b6-46ce-9c2b-bd9fc58b2d2d}; !- HVAC Component

OS:PortList,
  {5b2bd66f-641b-4022-a0c5-a93ca20c6de7}, !- Handle
  {a4a9578e-c32d-4a53-9980-c8fe8d4c80ae}, !- Name
  {d5cabb3d-d1b6-46ce-9c2b-bd9fc58b2d2d}; !- HVAC Component

OS:PortList,
  {83ba01d5-8c2d-45a2-a241-ec520cdc13d0}, !- Handle
  {a4c1e473-fcf1-4cf3-93e4-f5e30f36a20a}, !- Name
  {d5cabb3d-d1b6-46ce-9c2b-bd9fc58b2d2d}; !- HVAC Component

OS:Sizing:Zone,
  {36c45105-ba8c-4b97-a7bd-79024382b351}, !- Handle
  {d5cabb3d-d1b6-46ce-9c2b-bd9fc58b2d2d}, !- Zone or ZoneList Name
  SupplyAirTemperature,                   !- Zone Cooling Design Supply Air Temperature Input Method
  14,                                     !- Zone Cooling Design Supply Air Temperature {C}
  11.11,                                  !- Zone Cooling Design Supply Air Temperature Difference {deltaC}
  SupplyAirTemperature,                   !- Zone Heating Design Supply Air Temperature Input Method
  40,                                     !- Zone Heating Design Supply Air Temperature {C}
  11.11,                                  !- Zone Heating Design Supply Air Temperature Difference {deltaC}
  0.0085,                                 !- Zone Cooling Design Supply Air Humidity Ratio {kg-H2O/kg-air}
  0.008,                                  !- Zone Heating Design Supply Air Humidity Ratio {kg-H2O/kg-air}
  ,                                       !- Zone Heating Sizing Factor
  ,                                       !- Zone Cooling Sizing Factor
  DesignDay,                              !- Cooling Design Air Flow Method
  ,                                       !- Cooling Design Air Flow Rate {m3/s}
  ,                                       !- Cooling Minimum Air Flow per Zone Floor Area {m3/s-m2}
  ,                                       !- Cooling Minimum Air Flow {m3/s}
  ,                                       !- Cooling Minimum Air Flow Fraction
  DesignDay,                              !- Heating Design Air Flow Method
  ,                                       !- Heating Design Air Flow Rate {m3/s}
  ,                                       !- Heating Maximum Air Flow per Zone Floor Area {m3/s-m2}
  ,                                       !- Heating Maximum Air Flow {m3/s}
  ,                                       !- Heating Maximum Air Flow Fraction
  ,                                       !- Design Zone Air Distribution Effectiveness in Cooling Mode
  ,                                       !- Design Zone Air Distribution Effectiveness in Heating Mode
  No,                                     !- Account for Dedicated Outdoor Air System
  NeutralSupplyAir,                       !- Dedicated Outdoor Air System Control Strategy
  autosize,                               !- Dedicated Outdoor Air Low Setpoint Temperature for Design {C}
  autosize;                               !- Dedicated Outdoor Air High Setpoint Temperature for Design {C}

OS:ZoneHVAC:EquipmentList,
  {a67e2e08-e89d-4908-a18b-03b5af6e97a5}, !- Handle
  Zone HVAC Equipment List 2,             !- Name
  {d5cabb3d-d1b6-46ce-9c2b-bd9fc58b2d2d}; !- Thermal Zone

OS:Space,
  {0d410c09-7d9f-4f8e-b5b6-6b3668cc32e5}, !- Handle
  garage space,                           !- Name
  {7164f8c3-77b5-4a4d-ad0d-b8e719eeb85e}, !- Space Type Name
  ,                                       !- Default Construction Set Name
  ,                                       !- Default Schedule Set Name
  -0,                                     !- Direction of Relative North {deg}
  0,                                      !- X Origin {m}
  0,                                      !- Y Origin {m}
  0,                                      !- Z Origin {m}
  ,                                       !- Building Story Name
  {d5cabb3d-d1b6-46ce-9c2b-bd9fc58b2d2d}; !- Thermal Zone Name

OS:Surface,
  {64ccbcfc-0d07-4f15-98ea-550083cfe17a}, !- Handle
  Surface 1,                              !- Name
  Floor,                                  !- Surface Type
  ,                                       !- Construction Name
  {0d410c09-7d9f-4f8e-b5b6-6b3668cc32e5}, !- Space Name
  Foundation,                             !- Outside Boundary Condition
  ,                                       !- Outside Boundary Condition Object
  NoSun,                                  !- Sun Exposure
  NoWind,                                 !- Wind Exposure
  ,                                       !- View Factor to Ground
  ,                                       !- Number of Vertices
  5.57695129776527, -3.048, 0,            !- X,Y,Z Vertex 1 {m}
  5.57695129776527, 3.048, 0,             !- X,Y,Z Vertex 2 {m}
  11.6729512977653, 3.048, 0,             !- X,Y,Z Vertex 3 {m}
  11.6729512977653, -3.048, 0;            !- X,Y,Z Vertex 4 {m}

OS:Surface,
  {83607433-9bcf-4fcb-8180-65e311dcefcd}, !- Handle
  Surface 2,                              !- Name
  Wall,                                   !- Surface Type
  ,                                       !- Construction Name
  {0d410c09-7d9f-4f8e-b5b6-6b3668cc32e5}, !- Space Name
  Surface,                                !- Outside Boundary Condition
  {46d79f6d-2bcc-4e9f-8aca-37455d1a226d}, !- Outside Boundary Condition Object
  NoSun,                                  !- Sun Exposure
  NoWind,                                 !- Wind Exposure
  ,                                       !- View Factor to Ground
  ,                                       !- Number of Vertices
  5.57695129776527, 3.048, 2.4384,        !- X,Y,Z Vertex 1 {m}
  5.57695129776527, 3.048, 0,             !- X,Y,Z Vertex 2 {m}
  5.57695129776527, 0, 0,                 !- X,Y,Z Vertex 3 {m}
  5.57695129776527, 0, 2.4384;            !- X,Y,Z Vertex 4 {m}

OS:Surface,
  {57a8aefe-36e8-4086-9694-7575989eed55}, !- Handle
  Surface 3,                              !- Name
  Wall,                                   !- Surface Type
  ,                                       !- Construction Name
  {0d410c09-7d9f-4f8e-b5b6-6b3668cc32e5}, !- Space Name
  Surface,                                !- Outside Boundary Condition
  {d125ba82-6e30-4beb-a219-6b6225ec1eaf}, !- Outside Boundary Condition Object
  NoSun,                                  !- Sun Exposure
  NoWind,                                 !- Wind Exposure
  ,                                       !- View Factor to Ground
  ,                                       !- Number of Vertices
  11.6729512977653, 3.048, 2.4384,        !- X,Y,Z Vertex 1 {m}
  11.6729512977653, 3.048, 0,             !- X,Y,Z Vertex 2 {m}
  5.57695129776527, 3.048, 0,             !- X,Y,Z Vertex 3 {m}
  5.57695129776527, 3.048, 2.4384;        !- X,Y,Z Vertex 4 {m}

OS:Surface,
  {2daeb75c-d106-44a7-8469-a135aa2278ec}, !- Handle
  Surface 4,                              !- Name
  Wall,                                   !- Surface Type
  ,                                       !- Construction Name
  {0d410c09-7d9f-4f8e-b5b6-6b3668cc32e5}, !- Space Name
  Outdoors,                               !- Outside Boundary Condition
  ,                                       !- Outside Boundary Condition Object
  SunExposed,                             !- Sun Exposure
  WindExposed,                            !- Wind Exposure
  ,                                       !- View Factor to Ground
  ,                                       !- Number of Vertices
  11.6729512977653, -3.048, 2.4384,       !- X,Y,Z Vertex 1 {m}
  11.6729512977653, -3.048, 0,            !- X,Y,Z Vertex 2 {m}
  11.6729512977653, 3.048, 0,             !- X,Y,Z Vertex 3 {m}
  11.6729512977653, 3.048, 2.4384;        !- X,Y,Z Vertex 4 {m}

OS:Surface,
  {e6e95e0e-0245-448d-8a97-01cd32740699}, !- Handle
  Surface 5,                              !- Name
  Wall,                                   !- Surface Type
  ,                                       !- Construction Name
  {0d410c09-7d9f-4f8e-b5b6-6b3668cc32e5}, !- Space Name
  Outdoors,                               !- Outside Boundary Condition
  ,                                       !- Outside Boundary Condition Object
  SunExposed,                             !- Sun Exposure
  WindExposed,                            !- Wind Exposure
  ,                                       !- View Factor to Ground
  ,                                       !- Number of Vertices
  5.57695129776527, -3.048, 2.4384,       !- X,Y,Z Vertex 1 {m}
  5.57695129776527, -3.048, 0,            !- X,Y,Z Vertex 2 {m}
  11.6729512977653, -3.048, 0,            !- X,Y,Z Vertex 3 {m}
  11.6729512977653, -3.048, 2.4384;       !- X,Y,Z Vertex 4 {m}

OS:Surface,
  {4beb5f60-a528-4666-9818-c16247564d5e}, !- Handle
  Surface 6,                              !- Name
  RoofCeiling,                            !- Surface Type
  ,                                       !- Construction Name
  {0d410c09-7d9f-4f8e-b5b6-6b3668cc32e5}, !- Space Name
  Surface,                                !- Outside Boundary Condition
  {d1bd9741-3735-4736-9f29-eebd0a7d74e2}, !- Outside Boundary Condition Object
  NoSun,                                  !- Sun Exposure
  NoWind,                                 !- Wind Exposure
  ,                                       !- View Factor to Ground
  ,                                       !- Number of Vertices
  11.6729512977653, -3.048, 2.4384,       !- X,Y,Z Vertex 1 {m}
  11.6729512977653, 3.048, 2.4384,        !- X,Y,Z Vertex 2 {m}
  5.57695129776527, 3.048, 2.4384,        !- X,Y,Z Vertex 3 {m}
  5.57695129776527, -3.048, 2.4384;       !- X,Y,Z Vertex 4 {m}

OS:SpaceType,
  {7164f8c3-77b5-4a4d-ad0d-b8e719eeb85e}, !- Handle
  Space Type 1,                           !- Name
  ,                                       !- Default Construction Set Name
  ,                                       !- Default Schedule Set Name
  ,                                       !- Group Rendering Name
  ,                                       !- Design Specification Outdoor Air Object Name
  ,                                       !- Standards Template
  ,                                       !- Standards Building Type
  garage;                                 !- Standards Space Type

OS:Space,
  {8d1fb2ee-2ab0-4124-973e-207ec52357af}, !- Handle
  living space,                           !- Name
  {f399afaf-d870-4eee-b619-39658a68f93e}, !- Space Type Name
  ,                                       !- Default Construction Set Name
  ,                                       !- Default Schedule Set Name
  -0,                                     !- Direction of Relative North {deg}
  0,                                      !- X Origin {m}
  0,                                      !- Y Origin {m}
  0,                                      !- Z Origin {m}
  ,                                       !- Building Story Name
  {813c0712-1f31-48a3-92a7-8f8f009222d9}, !- Thermal Zone Name
  ,                                       !- Part of Total Floor Area
  ,                                       !- Design Specification Outdoor Air Object Name
  {4bc6114d-dcde-4f21-8c5d-025221d7cae0}; !- Building Unit Name

OS:Surface,
  {398ae007-fbd6-4123-b7d8-4d2dfd163d7c}, !- Handle
  Surface 7,                              !- Name
  Floor,                                  !- Surface Type
  ,                                       !- Construction Name
  {8d1fb2ee-2ab0-4124-973e-207ec52357af}, !- Space Name
  Surface,                                !- Outside Boundary Condition
  {6903c8ad-614d-4851-98b3-374fb55347f0}, !- Outside Boundary Condition Object
  NoSun,                                  !- Sun Exposure
  NoWind,                                 !- Wind Exposure
  ,                                       !- View Factor to Ground
  ,                                       !- Number of Vertices
  0, 0, 0,                                !- X,Y,Z Vertex 1 {m}
  0, 5.83647564888264, 0,                 !- X,Y,Z Vertex 2 {m}
  11.6729512977653, 5.83647564888264, 0,  !- X,Y,Z Vertex 3 {m}
  11.6729512977653, 3.048, 0,             !- X,Y,Z Vertex 4 {m}
  5.57695129776527, 3.048, 0,             !- X,Y,Z Vertex 5 {m}
  5.57695129776527, 0, 0;                 !- X,Y,Z Vertex 6 {m}

OS:Surface,
  {4c8ac670-7443-4227-a83f-1b4a7fb18e93}, !- Handle
  Surface 8,                              !- Name
  Wall,                                   !- Surface Type
  ,                                       !- Construction Name
  {8d1fb2ee-2ab0-4124-973e-207ec52357af}, !- Space Name
  Outdoors,                               !- Outside Boundary Condition
  ,                                       !- Outside Boundary Condition Object
  SunExposed,                             !- Sun Exposure
  WindExposed,                            !- Wind Exposure
  ,                                       !- View Factor to Ground
  ,                                       !- Number of Vertices
  0, 5.83647564888264, 2.4384,            !- X,Y,Z Vertex 1 {m}
  0, 5.83647564888264, 0,                 !- X,Y,Z Vertex 2 {m}
  0, 0, 0,                                !- X,Y,Z Vertex 3 {m}
  0, 0, 2.4384;                           !- X,Y,Z Vertex 4 {m}

OS:Surface,
  {bbb11223-2931-49dd-b1ed-7cb1a929366f}, !- Handle
  Surface 9,                              !- Name
  Wall,                                   !- Surface Type
  ,                                       !- Construction Name
  {8d1fb2ee-2ab0-4124-973e-207ec52357af}, !- Space Name
  Outdoors,                               !- Outside Boundary Condition
  ,                                       !- Outside Boundary Condition Object
  SunExposed,                             !- Sun Exposure
  WindExposed,                            !- Wind Exposure
  ,                                       !- View Factor to Ground
  ,                                       !- Number of Vertices
  11.6729512977653, 5.83647564888264, 2.4384, !- X,Y,Z Vertex 1 {m}
  11.6729512977653, 5.83647564888264, 0,  !- X,Y,Z Vertex 2 {m}
  0, 5.83647564888264, 0,                 !- X,Y,Z Vertex 3 {m}
  0, 5.83647564888264, 2.4384;            !- X,Y,Z Vertex 4 {m}

OS:Surface,
  {e615dddb-cfb8-4f1f-9d62-64c7243b10a7}, !- Handle
  Surface 10,                             !- Name
  Wall,                                   !- Surface Type
  ,                                       !- Construction Name
  {8d1fb2ee-2ab0-4124-973e-207ec52357af}, !- Space Name
  Outdoors,                               !- Outside Boundary Condition
  ,                                       !- Outside Boundary Condition Object
  SunExposed,                             !- Sun Exposure
  WindExposed,                            !- Wind Exposure
  ,                                       !- View Factor to Ground
  ,                                       !- Number of Vertices
  11.6729512977653, 3.048, 2.4384,        !- X,Y,Z Vertex 1 {m}
  11.6729512977653, 3.048, 0,             !- X,Y,Z Vertex 2 {m}
  11.6729512977653, 5.83647564888264, 0,  !- X,Y,Z Vertex 3 {m}
  11.6729512977653, 5.83647564888264, 2.4384; !- X,Y,Z Vertex 4 {m}

OS:Surface,
  {d125ba82-6e30-4beb-a219-6b6225ec1eaf}, !- Handle
  Surface 11,                             !- Name
  Wall,                                   !- Surface Type
  ,                                       !- Construction Name
  {8d1fb2ee-2ab0-4124-973e-207ec52357af}, !- Space Name
  Surface,                                !- Outside Boundary Condition
  {57a8aefe-36e8-4086-9694-7575989eed55}, !- Outside Boundary Condition Object
  NoSun,                                  !- Sun Exposure
  NoWind,                                 !- Wind Exposure
  ,                                       !- View Factor to Ground
  ,                                       !- Number of Vertices
  5.57695129776527, 3.048, 2.4384,        !- X,Y,Z Vertex 1 {m}
  5.57695129776527, 3.048, 0,             !- X,Y,Z Vertex 2 {m}
  11.6729512977653, 3.048, 0,             !- X,Y,Z Vertex 3 {m}
  11.6729512977653, 3.048, 2.4384;        !- X,Y,Z Vertex 4 {m}

OS:Surface,
  {46d79f6d-2bcc-4e9f-8aca-37455d1a226d}, !- Handle
  Surface 12,                             !- Name
  Wall,                                   !- Surface Type
  ,                                       !- Construction Name
  {8d1fb2ee-2ab0-4124-973e-207ec52357af}, !- Space Name
  Surface,                                !- Outside Boundary Condition
  {83607433-9bcf-4fcb-8180-65e311dcefcd}, !- Outside Boundary Condition Object
  NoSun,                                  !- Sun Exposure
  NoWind,                                 !- Wind Exposure
  ,                                       !- View Factor to Ground
  ,                                       !- Number of Vertices
  5.57695129776527, 0, 2.4384,            !- X,Y,Z Vertex 1 {m}
  5.57695129776527, 0, 0,                 !- X,Y,Z Vertex 2 {m}
  5.57695129776527, 3.048, 0,             !- X,Y,Z Vertex 3 {m}
  5.57695129776527, 3.048, 2.4384;        !- X,Y,Z Vertex 4 {m}

OS:Surface,
  {9f96992e-5c79-4023-ba41-c302466e12a4}, !- Handle
  Surface 13,                             !- Name
  Wall,                                   !- Surface Type
  ,                                       !- Construction Name
  {8d1fb2ee-2ab0-4124-973e-207ec52357af}, !- Space Name
  Outdoors,                               !- Outside Boundary Condition
  ,                                       !- Outside Boundary Condition Object
  SunExposed,                             !- Sun Exposure
  WindExposed,                            !- Wind Exposure