!- NOTE: Auto-generated from /test/osw_files/SFD_HVACSizing_Equip_ElecBoiler_Fixed.osw

OS:Version,
  {d447ce9a-3962-4224-8d49-c75131c7b72b}, !- Handle
  2.9.1;                                  !- Version Identifier

OS:SimulationControl,
  {daa69e18-a6ce-44b8-9e4a-a46a1db06a1e}, !- Handle
  ,                                       !- Do Zone Sizing Calculation
  ,                                       !- Do System Sizing Calculation
  ,                                       !- Do Plant Sizing Calculation
  No;                                     !- Run Simulation for Sizing Periods

OS:Timestep,
  {c6983000-cda7-496c-ad72-b868305f3a86}, !- Handle
  6;                                      !- Number of Timesteps per Hour

OS:ShadowCalculation,
  {66b6b001-96e8-4e22-9774-fc13b8a19553}, !- Handle
  20,                                     !- Calculation Frequency
  200;                                    !- Maximum Figures in Shadow Overlap Calculations

OS:SurfaceConvectionAlgorithm:Outside,
  {057bebe1-7dab-4ba7-a42b-41cb3c9a51c1}, !- Handle
  DOE-2;                                  !- Algorithm

OS:SurfaceConvectionAlgorithm:Inside,
  {64fc9af3-8a8e-469a-87c8-96c32ed6cdb0}, !- Handle
  TARP;                                   !- Algorithm

OS:ZoneCapacitanceMultiplier:ResearchSpecial,
  {fa69293c-8f8c-4222-a20e-9fdf6e43fd30}, !- Handle
  ,                                       !- Temperature Capacity Multiplier
  15,                                     !- Humidity Capacity Multiplier
  ;                                       !- Carbon Dioxide Capacity Multiplier

OS:RunPeriod,
  {126fbcf7-ef4a-43ac-8ddd-6fa5944c2d05}, !- Handle
  Run Period 1,                           !- Name
  1,                                      !- Begin Month
  1,                                      !- Begin Day of Month
  12,                                     !- End Month
  31,                                     !- End Day of Month
  ,                                       !- Use Weather File Holidays and Special Days
  ,                                       !- Use Weather File Daylight Saving Period
  ,                                       !- Apply Weekend Holiday Rule
  ,                                       !- Use Weather File Rain Indicators
  ,                                       !- Use Weather File Snow Indicators
  ;                                       !- Number of Times Runperiod to be Repeated

OS:YearDescription,
  {9184fd6f-2a1e-4e4a-97bf-a8e373a3260b}, !- Handle
  2007,                                   !- Calendar Year
  ,                                       !- Day of Week for Start Day
  ;                                       !- Is Leap Year

OS:WeatherFile,
  {72f2bcad-712c-4987-8d59-d8ac9a90b0d2}, !- Handle
  Denver Intl Ap,                         !- City
  CO,                                     !- State Province Region
  USA,                                    !- Country
  TMY3,                                   !- Data Source
  725650,                                 !- WMO Number
  39.83,                                  !- Latitude {deg}
  -104.65,                                !- Longitude {deg}
  -7,                                     !- Time Zone {hr}
  1650,                                   !- Elevation {m}
  file:../weather/USA_CO_Denver.Intl.AP.725650_TMY3.epw, !- Url
  E23378AA;                               !- Checksum

OS:AdditionalProperties,
  {f13098dd-a315-47ad-a04c-4308d84c43ab}, !- Handle
  {72f2bcad-712c-4987-8d59-d8ac9a90b0d2}, !- Object Name
  EPWHeaderCity,                          !- Feature Name 1
  String,                                 !- Feature Data Type 1
  Denver Intl Ap,                         !- Feature Value 1
  EPWHeaderState,                         !- Feature Name 2
  String,                                 !- Feature Data Type 2
  CO,                                     !- Feature Value 2
  EPWHeaderCountry,                       !- Feature Name 3
  String,                                 !- Feature Data Type 3
  USA,                                    !- Feature Value 3
  EPWHeaderDataSource,                    !- Feature Name 4
  String,                                 !- Feature Data Type 4
  TMY3,                                   !- Feature Value 4
  EPWHeaderStation,                       !- Feature Name 5
  String,                                 !- Feature Data Type 5
  725650,                                 !- Feature Value 5
  EPWHeaderLatitude,                      !- Feature Name 6
  Double,                                 !- Feature Data Type 6
  39.829999999999998,                     !- Feature Value 6
  EPWHeaderLongitude,                     !- Feature Name 7
  Double,                                 !- Feature Data Type 7
  -104.65000000000001,                    !- Feature Value 7
  EPWHeaderTimezone,                      !- Feature Name 8
  Double,                                 !- Feature Data Type 8
  -7,                                     !- Feature Value 8
  EPWHeaderAltitude,                      !- Feature Name 9
  Double,                                 !- Feature Data Type 9
  5413.3858267716532,                     !- Feature Value 9
  EPWHeaderLocalPressure,                 !- Feature Name 10
  Double,                                 !- Feature Data Type 10
  0.81937567683596546,                    !- Feature Value 10
  EPWHeaderRecordsPerHour,                !- Feature Name 11
  Double,                                 !- Feature Data Type 11
  0,                                      !- Feature Value 11
  EPWDataAnnualAvgDrybulb,                !- Feature Name 12
  Double,                                 !- Feature Data Type 12
  51.575616438356228,                     !- Feature Value 12
  EPWDataAnnualMinDrybulb,                !- Feature Name 13
  Double,                                 !- Feature Data Type 13
  -2.9200000000000017,                    !- Feature Value 13
  EPWDataAnnualMaxDrybulb,                !- Feature Name 14
  Double,                                 !- Feature Data Type 14
  104,                                    !- Feature Value 14
  EPWDataCDD50F,                          !- Feature Name 15
  Double,                                 !- Feature Data Type 15
  3072.2925000000005,                     !- Feature Value 15
  EPWDataCDD65F,                          !- Feature Name 16
  Double,                                 !- Feature Data Type 16
  883.62000000000035,                     !- Feature Value 16
  EPWDataHDD50F,                          !- Feature Name 17
  Double,                                 !- Feature Data Type 17
  2497.1925000000001,                     !- Feature Value 17
  EPWDataHDD65F,                          !- Feature Name 18
  Double,                                 !- Feature Data Type 18
  5783.5200000000013,                     !- Feature Value 18
  EPWDataAnnualAvgWindspeed,              !- Feature Name 19
  Double,                                 !- Feature Data Type 19
  3.9165296803649667,                     !- Feature Value 19
  EPWDataMonthlyAvgDrybulbs,              !- Feature Name 20
  String,                                 !- Feature Data Type 20
  33.4191935483871&#4431.90142857142857&#4443.02620967741937&#4442.48624999999999&#4459.877741935483854&#4473.57574999999997&#4472.07975806451608&#4472.70008064516134&#4466.49200000000006&#4450.079112903225806&#4437.218250000000005&#4434.582177419354835, !- Feature Value 20
  EPWDataGroundMonthlyTemps,              !- Feature Name 21
  String,                                 !- Feature Data Type 21
  44.08306285945173&#4440.89570904991865&#4440.64045432632048&#4442.153016571250646&#4448.225111118704206&#4454.268919273837525&#4459.508577937551024&#4462.82777283423508&#4463.10975667174995&#4460.41014950381947&#4455.304105212311526&#4449.445696474514364, !- Feature Value 21
  EPWDataWSF,                             !- Feature Name 22
  Double,                                 !- Feature Data Type 22
  0.58999999999999997,                    !- Feature Value 22
  EPWDataMonthlyAvgDailyHighDrybulbs,     !- Feature Name 23
  String,                                 !- Feature Data Type 23
  47.41032258064516&#4446.58642857142857&#4455.15032258064517&#4453.708&#4472.80193548387098&#4488.67600000000002&#4486.1858064516129&#4485.87225806451613&#4482.082&#4463.18064516129033&#4448.73400000000001&#4448.87935483870968, !- Feature Value 23
  EPWDataMonthlyAvgDailyLowDrybulbs,      !- Feature Name 24
  String,                                 !- Feature Data Type 24
  19.347741935483874&#4419.856428571428573&#4430.316129032258065&#4431.112&#4447.41612903225806&#4457.901999999999994&#4459.063870967741934&#4460.956774193548384&#4452.352000000000004&#4438.41612903225806&#4427.002000000000002&#4423.02903225806451, !- Feature Value 24
  EPWDesignHeatingDrybulb,                !- Feature Name 25
  Double,                                 !- Feature Data Type 25
  12.02,                                  !- Feature Value 25
  EPWDesignHeatingWindspeed,              !- Feature Name 26
  Double,                                 !- Feature Data Type 26
  2.8062500000000004,                     !- Feature Value 26
  EPWDesignCoolingDrybulb,                !- Feature Name 27
  Double,                                 !- Feature Data Type 27
  91.939999999999998,                     !- Feature Value 27
  EPWDesignCoolingWetbulb,                !- Feature Name 28
  Double,                                 !- Feature Data Type 28
  59.95131430195849,                      !- Feature Value 28
  EPWDesignCoolingHumidityRatio,          !- Feature Name 29
  Double,                                 !- Feature Data Type 29
  0.0059161086834698092,                  !- Feature Value 29
  EPWDesignCoolingWindspeed,              !- Feature Name 30
  Double,                                 !- Feature Data Type 30
  3.7999999999999989,                     !- Feature Value 30
  EPWDesignDailyTemperatureRange,         !- Feature Name 31
  Double,                                 !- Feature Data Type 31
  24.915483870967748,                     !- Feature Value 31
  EPWDesignDehumidDrybulb,                !- Feature Name 32
  Double,                                 !- Feature Data Type 32
  67.996785714285721,                     !- Feature Value 32
  EPWDesignDehumidHumidityRatio,          !- Feature Name 33
  Double,                                 !- Feature Data Type 33
  0.012133744170488724,                   !- Feature Value 33
  EPWDesignCoolingDirectNormal,           !- Feature Name 34
  Double,                                 !- Feature Data Type 34
  985,                                    !- Feature Value 34
  EPWDesignCoolingDiffuseHorizontal,      !- Feature Name 35
  Double,                                 !- Feature Data Type 35
  84;                                     !- Feature Value 35

OS:Site,
  {c2106e9d-f4a8-4b36-8cea-37c754b68bc6}, !- Handle
  Denver Intl Ap_CO_USA,                  !- Name
  39.83,                                  !- Latitude {deg}
  -104.65,                                !- Longitude {deg}
  -7,                                     !- Time Zone {hr}
  1650,                                   !- Elevation {m}
  Suburbs;                                !- Terrain

OS:ClimateZones,
  {304e30ee-ca01-4be8-a99c-964a6221eb10}, !- Handle
  ,                                       !- Active Institution
  ,                                       !- Active Year
  ,                                       !- Climate Zone Institution Name 1
  ,                                       !- Climate Zone Document Name 1
  ,                                       !- Climate Zone Document Year 1
  ,                                       !- Climate Zone Value 1
  Building America,                       !- Climate Zone Institution Name 2
  ,                                       !- Climate Zone Document Name 2
  0,                                      !- Climate Zone Document Year 2
  Cold;                                   !- Climate Zone Value 2

OS:Site:WaterMainsTemperature,
  {e12cd11f-426d-4476-b902-192a356c7813}, !- Handle
  Correlation,                            !- Calculation Method
  ,                                       !- Temperature Schedule Name
  10.8753424657535,                       !- Annual Average Outdoor Air Temperature {C}
  23.1524007936508;                       !- Maximum Difference In Monthly Average Outdoor Air Temperatures {deltaC}

OS:RunPeriodControl:DaylightSavingTime,
  {527ac9dd-9ff5-43b3-b0a3-e02752d64e1f}, !- Handle
  4/7,                                    !- Start Date
  10/26;                                  !- End Date

OS:Site:GroundTemperature:Deep,
  {4a801e67-ec98-40af-9667-3f778b52ccd1}, !- Handle
  10.8753424657535,                       !- January Deep Ground Temperature {C}
  10.8753424657535,                       !- February Deep Ground Temperature {C}
  10.8753424657535,                       !- March Deep Ground Temperature {C}
  10.8753424657535,                       !- April Deep Ground Temperature {C}
  10.8753424657535,                       !- May Deep Ground Temperature {C}
  10.8753424657535,                       !- June Deep Ground Temperature {C}
  10.8753424657535,                       !- July Deep Ground Temperature {C}
  10.8753424657535,                       !- August Deep Ground Temperature {C}
  10.8753424657535,                       !- September Deep Ground Temperature {C}
  10.8753424657535,                       !- October Deep Ground Temperature {C}
  10.8753424657535,                       !- November Deep Ground Temperature {C}
  10.8753424657535;                       !- December Deep Ground Temperature {C}

OS:ThermalZone,
  {1156c789-2bee-4033-a649-50721fa4a0d0}, !- Handle
  living zone,                            !- Name
  ,                                       !- Multiplier
  ,                                       !- Ceiling Height {m}
  ,                                       !- Volume {m3}
  ,                                       !- Floor Area {m2}
  ,                                       !- Zone Inside Convection Algorithm
  ,                                       !- Zone Outside Convection Algorithm
  ,                                       !- Zone Conditioning Equipment List Name
  {56b2e983-49ac-47c3-87a7-478527950ba5}, !- Zone Air Inlet Port List
  {c49e6cf9-141e-4b10-9ebb-91e2065a0355}, !- Zone Air Exhaust Port List
  {4d3cd64a-ed9f-404f-bf6f-25c01fbbf82b}, !- Zone Air Node Name
  {be9e73c9-0842-45a5-b648-572b075eae0d}, !- Zone Return Air Port List
  ,                                       !- Primary Daylighting Control Name
  ,                                       !- Fraction of Zone Controlled by Primary Daylighting Control
  ,                                       !- Secondary Daylighting Control Name
  ,                                       !- Fraction of Zone Controlled by Secondary Daylighting Control
  ,                                       !- Illuminance Map Name
  ,                                       !- Group Rendering Name
  {a7cc9a00-2501-450d-a1e9-0691c7060206}, !- Thermostat Name
  No;                                     !- Use Ideal Air Loads

OS:Node,
  {0f8f2fdb-287b-410d-a820-13cdfdd0c198}, !- Handle
  Node 1,                                 !- Name
  {4d3cd64a-ed9f-404f-bf6f-25c01fbbf82b}, !- Inlet Port
  ;                                       !- Outlet Port

OS:Connection,
  {4d3cd64a-ed9f-404f-bf6f-25c01fbbf82b}, !- Handle
  {735a548e-1a62-4b0c-b95c-0d18d1a08551}, !- Name
  {1156c789-2bee-4033-a649-50721fa4a0d0}, !- Source Object
  11,                                     !- Outlet Port
  {0f8f2fdb-287b-410d-a820-13cdfdd0c198}, !- Target Object
  2;                                      !- Inlet Port

OS:PortList,
  {56b2e983-49ac-47c3-87a7-478527950ba5}, !- Handle
  {d6343202-7d79-42f7-ad7c-3b36beb17660}, !- Name
  {1156c789-2bee-4033-a649-50721fa4a0d0}; !- HVAC Component

OS:PortList,
  {c49e6cf9-141e-4b10-9ebb-91e2065a0355}, !- Handle
  {2ab65730-45a9-4d33-9db6-01dced528bb0}, !- Name
  {1156c789-2bee-4033-a649-50721fa4a0d0}; !- HVAC Component

OS:PortList,
  {be9e73c9-0842-45a5-b648-572b075eae0d}, !- Handle
  {0dbff653-3969-484d-a09f-c385c8f9800e}, !- Name
  {1156c789-2bee-4033-a649-50721fa4a0d0}; !- HVAC Component

OS:Sizing:Zone,
  {5136e928-6d68-4ee2-b0fb-7652f84c30a6}, !- Handle
  {1156c789-2bee-4033-a649-50721fa4a0d0}, !- Zone or ZoneList Name
  SupplyAirTemperature,                   !- Zone Cooling Design Supply Air Temperature Input Method
  14,                                     !- Zone Cooling Design Supply Air Temperature {C}
  11.11,                                  !- Zone Cooling Design Supply Air Temperature Difference {deltaC}
  SupplyAirTemperature,                   !- Zone Heating Design Supply Air Temperature Input Method
  40,                                     !- Zone Heating Design Supply Air Temperature {C}
  11.11,                                  !- Zone Heating Design Supply Air Temperature Difference {deltaC}
  0.0085,                                 !- Zone Cooling Design Supply Air Humidity Ratio {kg-H2O/kg-air}
  0.008,                                  !- Zone Heating Design Supply Air Humidity Ratio {kg-H2O/kg-air}
  ,                                       !- Zone Heating Sizing Factor
  ,                                       !- Zone Cooling Sizing Factor
  DesignDay,                              !- Cooling Design Air Flow Method
  ,                                       !- Cooling Design Air Flow Rate {m3/s}
  ,                                       !- Cooling Minimum Air Flow per Zone Floor Area {m3/s-m2}
  ,                                       !- Cooling Minimum Air Flow {m3/s}
  ,                                       !- Cooling Minimum Air Flow Fraction
  DesignDay,                              !- Heating Design Air Flow Method
  ,                                       !- Heating Design Air Flow Rate {m3/s}
  ,                                       !- Heating Maximum Air Flow per Zone Floor Area {m3/s-m2}
  ,                                       !- Heating Maximum Air Flow {m3/s}
  ,                                       !- Heating Maximum Air Flow Fraction
  ,                                       !- Design Zone Air Distribution Effectiveness in Cooling Mode
  ,                                       !- Design Zone Air Distribution Effectiveness in Heating Mode
  No,                                     !- Account for Dedicated Outdoor Air System
  NeutralSupplyAir,                       !- Dedicated Outdoor Air System Control Strategy
  autosize,                               !- Dedicated Outdoor Air Low Setpoint Temperature for Design {C}
  autosize;                               !- Dedicated Outdoor Air High Setpoint Temperature for Design {C}

OS:ZoneHVAC:EquipmentList,
  {97cca9ab-a37b-44b6-ac80-37a5f2719b53}, !- Handle
  Zone HVAC Equipment List 1,             !- Name
  {1156c789-2bee-4033-a649-50721fa4a0d0}, !- Thermal Zone
  SequentialLoad,                         !- Load Distribution Scheme
  {04898abf-1dfc-4dac-83f4-d415737f0bcc}, !- Zone Equipment 1
  1,                                      !- Zone Equipment Cooling Sequence 1
  1,                                      !- Zone Equipment Heating or No-Load Sequence 1
  ,                                       !- Zone Equipment Sequential Cooling Fraction Schedule Name 1
  ;                                       !- Zone Equipment Sequential Heating Fraction Schedule Name 1

OS:ThermalZone,
  {23c491bf-df18-4675-91b9-53f0e6051bce}, !- Handle
  garage zone,                            !- Name
  ,                                       !- Multiplier
  ,                                       !- Ceiling Height {m}
  ,                                       !- Volume {m3}
  ,                                       !- Floor Area {m2}
  ,                                       !- Zone Inside Convection Algorithm
  ,                                       !- Zone Outside Convection Algorithm
  ,                                       !- Zone Conditioning Equipment List Name
  {1aa50415-7da1-46b4-9753-81076e83d73b}, !- Zone Air Inlet Port List
  {f8cae7ec-67a6-4f82-9f1e-370cb0710cd0}, !- Zone Air Exhaust Port List
  {93585d9c-4e5d-48ed-90cf-a6b46968a263}, !- Zone Air Node Name
  {c7244abc-4a54-46df-b04d-495f43fe75db}, !- Zone Return Air Port List
  ,                                       !- Primary Daylighting Control Name
  ,                                       !- Fraction of Zone Controlled by Primary Daylighting Control
  ,                                       !- Secondary Daylighting Control Name
  ,                                       !- Fraction of Zone Controlled by Secondary Daylighting Control
  ,                                       !- Illuminance Map Name
  ,                                       !- Group Rendering Name
  ,                                       !- Thermostat Name
  No;                                     !- Use Ideal Air Loads

OS:Node,
  {c5780963-b2fc-4b45-b7a0-3e1f61bf7d0c}, !- Handle
  Node 2,                                 !- Name
  {93585d9c-4e5d-48ed-90cf-a6b46968a263}, !- Inlet Port
  ;                                       !- Outlet Port

OS:Connection,
  {93585d9c-4e5d-48ed-90cf-a6b46968a263}, !- Handle
  {eafb4866-166f-48fc-8d68-fdff556ba9b0}, !- Name
  {23c491bf-df18-4675-91b9-53f0e6051bce}, !- Source Object
  11,                                     !- Outlet Port
  {c5780963-b2fc-4b45-b7a0-3e1f61bf7d0c}, !- Target Object
  2;                                      !- Inlet Port

OS:PortList,
  {1aa50415-7da1-46b4-9753-81076e83d73b}, !- Handle
  {b8df84e0-1a39-4f0e-ab44-e3cdae17f03a}, !- Name
  {23c491bf-df18-4675-91b9-53f0e6051bce}; !- HVAC Component

OS:PortList,
  {f8cae7ec-67a6-4f82-9f1e-370cb0710cd0}, !- Handle
  {120eeaa9-2bbd-4861-894b-f35f6adb26c2}, !- Name
  {23c491bf-df18-4675-91b9-53f0e6051bce}; !- HVAC Component

OS:PortList,
  {c7244abc-4a54-46df-b04d-495f43fe75db}, !- Handle
  {0002e90a-2a56-4cf7-865c-83251b98d35b}, !- Name
  {23c491bf-df18-4675-91b9-53f0e6051bce}; !- HVAC Component

OS:Sizing:Zone,
  {f2e1d4d2-b463-4820-b9da-ead01438cb09}, !- Handle
  {23c491bf-df18-4675-91b9-53f0e6051bce}, !- Zone or ZoneList Name
  SupplyAirTemperature,                   !- Zone Cooling Design Supply Air Temperature Input Method
  14,                                     !- Zone Cooling Design Supply Air Temperature {C}
  11.11,                                  !- Zone Cooling Design Supply Air Temperature Difference {deltaC}
  SupplyAirTemperature,                   !- Zone Heating Design Supply Air Temperature Input Method
  40,                                     !- Zone Heating Design Supply Air Temperature {C}
  11.11,                                  !- Zone Heating Design Supply Air Temperature Difference {deltaC}
  0.0085,                                 !- Zone Cooling Design Supply Air Humidity Ratio {kg-H2O/kg-air}
  0.008,                                  !- Zone Heating Design Supply Air Humidity Ratio {kg-H2O/kg-air}
  ,                                       !- Zone Heating Sizing Factor
  ,                                       !- Zone Cooling Sizing Factor
  DesignDay,                              !- Cooling Design Air Flow Method
  ,                                       !- Cooling Design Air Flow Rate {m3/s}
  ,                                       !- Cooling Minimum Air Flow per Zone Floor Area {m3/s-m2}
  ,                                       !- Cooling Minimum Air Flow {m3/s}
  ,                                       !- Cooling Minimum Air Flow Fraction
  DesignDay,                              !- Heating Design Air Flow Method
  ,                                       !- Heating Design Air Flow Rate {m3/s}
  ,                                       !- Heating Maximum Air Flow per Zone Floor Area {m3/s-m2}
  ,                                       !- Heating Maximum Air Flow {m3/s}
  ,                                       !- Heating Maximum Air Flow Fraction
  ,                                       !- Design Zone Air Distribution Effectiveness in Cooling Mode
  ,                                       !- Design Zone Air Distribution Effectiveness in Heating Mode
  No,                                     !- Account for Dedicated Outdoor Air System
  NeutralSupplyAir,                       !- Dedicated Outdoor Air System Control Strategy
  autosize,                               !- Dedicated Outdoor Air Low Setpoint Temperature for Design {C}
  autosize;                               !- Dedicated Outdoor Air High Setpoint Temperature for Design {C}

OS:ZoneHVAC:EquipmentList,
  {d2610c40-307a-45e7-828e-124877a96b32}, !- Handle
  Zone HVAC Equipment List 2,             !- Name
  {23c491bf-df18-4675-91b9-53f0e6051bce}; !- Thermal Zone

OS:Space,
  {8309ae39-9a7f-42dd-8939-6cb2f6e91033}, !- Handle
  garage space,                           !- Name
  {45d95854-35c6-4f6c-9a13-3029a5b25275}, !- Space Type Name
  ,                                       !- Default Construction Set Name
  ,                                       !- Default Schedule Set Name
  -0,                                     !- Direction of Relative North {deg}
  0,                                      !- X Origin {m}
  0,                                      !- Y Origin {m}
  0,                                      !- Z Origin {m}
  ,                                       !- Building Story Name
  {23c491bf-df18-4675-91b9-53f0e6051bce}; !- Thermal Zone Name

OS:Surface,
  {e1eb3e00-bbd4-4ab9-958f-7e445ae2d393}, !- Handle
  Surface 1,                              !- Name
  Floor,                                  !- Surface Type
  {16688a6c-f87a-4289-a4d9-f1afa04205d3}, !- Construction Name
  {8309ae39-9a7f-42dd-8939-6cb2f6e91033}, !- Space Name
  Foundation,                             !- Outside Boundary Condition
  {c272b3b3-4eff-43f4-b3b7-8d539ff209e9}, !- Outside Boundary Condition Object
  NoSun,                                  !- Sun Exposure
  NoWind,                                 !- Wind Exposure
  ,                                       !- View Factor to Ground
  ,                                       !- Number of Vertices
  8.91701625975123, -3.048, 0,            !- X,Y,Z Vertex 1 {m}
  8.91701625975123, 3.048, 0,             !- X,Y,Z Vertex 2 {m}
  12.5746162597512, 3.048, 0,             !- X,Y,Z Vertex 3 {m}
  12.5746162597512, -3.048, 0;            !- X,Y,Z Vertex 4 {m}

OS:Surface,
  {88156d24-0b85-457e-8aba-460f6712c64a}, !- Handle
  Surface 2,                              !- Name
  Wall,                                   !- Surface Type
  {225d14b6-8c78-4172-b831-08b3e0f340a5}, !- Construction Name
  {8309ae39-9a7f-42dd-8939-6cb2f6e91033}, !- Space Name
  Surface,                                !- Outside Boundary Condition
  {38edbf01-fde5-4682-8df1-31fe1f9d886d}, !- Outside Boundary Condition Object
  NoSun,                                  !- Sun Exposure
  NoWind,                                 !- Wind Exposure
  ,                                       !- View Factor to Ground
  ,                                       !- Number of Vertices
  8.91701625975123, 3.048, 2.4384,        !- X,Y,Z Vertex 1 {m}
  8.91701625975123, 3.048, 0,             !- X,Y,Z Vertex 2 {m}
  8.91701625975123, 0, 0,                 !- X,Y,Z Vertex 3 {m}
  8.91701625975123, 0, 2.4384;            !- X,Y,Z Vertex 4 {m}

OS:Surface,
  {352e44dc-59ee-4bea-a2da-fffc5603ffb5}, !- Handle
  Surface 3,                              !- Name
  Wall,                                   !- Surface Type
  {225d14b6-8c78-4172-b831-08b3e0f340a5}, !- Construction Name
  {8309ae39-9a7f-42dd-8939-6cb2f6e91033}, !- Space Name
  Surface,                                !- Outside Boundary Condition
  {33196fac-013f-4b6d-b28b-9848d0917ceb}, !- Outside Boundary Condition Object
  NoSun,                                  !- Sun Exposure
  NoWind,                                 !- Wind Exposure
  ,                                       !- View Factor to Ground
  ,                                       !- Number of Vertices
  12.5746162597512, 3.048, 2.4384,        !- X,Y,Z Vertex 1 {m}
  12.5746162597512, 3.048, 0,             !- X,Y,Z Vertex 2 {m}
  8.91701625975123, 3.048, 0,             !- X,Y,Z Vertex 3 {m}
  8.91701625975123, 3.048, 2.4384;        !- X,Y,Z Vertex 4 {m}

OS:Surface,
  {45ec7bcf-879f-42e3-9ba7-9fdffe3b02e0}, !- Handle
  Surface 4,                              !- Name
  Wall,                                   !- Surface Type
  {30ab615d-d33c-436f-9306-aed9c7913332}, !- Construction Name
  {8309ae39-9a7f-42dd-8939-6cb2f6e91033}, !- Space Name
  Outdoors,                               !- Outside Boundary Condition
  ,                                       !- Outside Boundary Condition Object
  SunExposed,                             !- Sun Exposure
  WindExposed,                            !- Wind Exposure
  ,                                       !- View Factor to Ground
  ,                                       !- Number of Vertices
  12.5746162597512, -3.048, 2.4384,       !- X,Y,Z Vertex 1 {m}
  12.5746162597512, -3.048, 0,            !- X,Y,Z Vertex 2 {m}
  12.5746162597512, 3.048, 0,             !- X,Y,Z Vertex 3 {m}
  12.5746162597512, 3.048, 2.4384;        !- X,Y,Z Vertex 4 {m}

OS:Surface,
  {d1bb424d-9a7b-44e6-a7c2-1633453222bf}, !- Handle
  Surface 5,                              !- Name
  Wall,                                   !- Surface Type
  {30ab615d-d33c-436f-9306-aed9c7913332}, !- Construction Name
  {8309ae39-9a7f-42dd-8939-6cb2f6e91033}, !- Space Name
  Outdoors,                               !- Outside Boundary Condition
  ,                                       !- Outside Boundary Condition Object
  SunExposed,                             !- Sun Exposure
  WindExposed,                            !- Wind Exposure