!- NOTE: Auto-generated from /test/osw_files/SFD_HVACSizing_Load_2story_CS_GRG_FA.osw

OS:Version,
  {bd6a2718-f96e-4295-a6e8-09055b3981eb}, !- Handle
  2.9.0;                                  !- Version Identifier

OS:SimulationControl,
  {45f7a9d5-7423-4df5-82cf-23fef1ebec11}, !- Handle
  ,                                       !- Do Zone Sizing Calculation
  ,                                       !- Do System Sizing Calculation
  ,                                       !- Do Plant Sizing Calculation
  No;                                     !- Run Simulation for Sizing Periods

OS:Timestep,
  {62509962-c706-4cc5-9cd9-bae7f3b6d6f0}, !- Handle
  6;                                      !- Number of Timesteps per Hour

OS:ShadowCalculation,
  {e2e9c5f8-4dd9-45e0-a731-8bd5ee101fb4}, !- Handle
  20,                                     !- Calculation Frequency
  200;                                    !- Maximum Figures in Shadow Overlap Calculations

OS:SurfaceConvectionAlgorithm:Outside,
  {23a05e95-ea81-4011-9fca-409683dc40bb}, !- Handle
  DOE-2;                                  !- Algorithm

OS:SurfaceConvectionAlgorithm:Inside,
  {1c237e69-c853-46f7-b922-9d2068677e23}, !- Handle
  TARP;                                   !- Algorithm

OS:ZoneCapacitanceMultiplier:ResearchSpecial,
  {d2498858-5fc0-4d4a-b01a-b15bc3c6d3d7}, !- Handle
  ,                                       !- Temperature Capacity Multiplier
  15,                                     !- Humidity Capacity Multiplier
  ;                                       !- Carbon Dioxide Capacity Multiplier

OS:RunPeriod,
  {d0217442-de22-4958-8322-3caa35cfa91d}, !- Handle
  Run Period 1,                           !- Name
  1,                                      !- Begin Month
  1,                                      !- Begin Day of Month
  12,                                     !- End Month
  31,                                     !- End Day of Month
  ,                                       !- Use Weather File Holidays and Special Days
  ,                                       !- Use Weather File Daylight Saving Period
  ,                                       !- Apply Weekend Holiday Rule
  ,                                       !- Use Weather File Rain Indicators
  ,                                       !- Use Weather File Snow Indicators
  ;                                       !- Number of Times Runperiod to be Repeated

OS:YearDescription,
  {7b33c539-2371-450d-a2ca-9dc29e8d01ba}, !- Handle
  2007,                                   !- Calendar Year
  ,                                       !- Day of Week for Start Day
  ;                                       !- Is Leap Year

OS:WeatherFile,
  {8a707e27-eb44-4aa9-81b6-145edcb9602b}, !- Handle
  Denver Intl Ap,                         !- City
  CO,                                     !- State Province Region
  USA,                                    !- Country
  TMY3,                                   !- Data Source
  725650,                                 !- WMO Number
  39.83,                                  !- Latitude {deg}
  -104.65,                                !- Longitude {deg}
  -7,                                     !- Time Zone {hr}
  1650,                                   !- Elevation {m}
  file:../weather/USA_CO_Denver.Intl.AP.725650_TMY3.epw, !- Url
  E23378AA;                               !- Checksum

OS:AdditionalProperties,
  {7fa20a30-1034-465d-b33c-6076d572b5e0}, !- Handle
  {8a707e27-eb44-4aa9-81b6-145edcb9602b}, !- Object Name
  EPWHeaderCity,                          !- Feature Name 1
  String,                                 !- Feature Data Type 1
  Denver Intl Ap,                         !- Feature Value 1
  EPWHeaderState,                         !- Feature Name 2
  String,                                 !- Feature Data Type 2
  CO,                                     !- Feature Value 2
  EPWHeaderCountry,                       !- Feature Name 3
  String,                                 !- Feature Data Type 3
  USA,                                    !- Feature Value 3
  EPWHeaderDataSource,                    !- Feature Name 4
  String,                                 !- Feature Data Type 4
  TMY3,                                   !- Feature Value 4
  EPWHeaderStation,                       !- Feature Name 5
  String,                                 !- Feature Data Type 5
  725650,                                 !- Feature Value 5
  EPWHeaderLatitude,                      !- Feature Name 6
  Double,                                 !- Feature Data Type 6
  39.829999999999998,                     !- Feature Value 6
  EPWHeaderLongitude,                     !- Feature Name 7
  Double,                                 !- Feature Data Type 7
  -104.65000000000001,                    !- Feature Value 7
  EPWHeaderTimezone,                      !- Feature Name 8
  Double,                                 !- Feature Data Type 8
  -7,                                     !- Feature Value 8
  EPWHeaderAltitude,                      !- Feature Name 9
  Double,                                 !- Feature Data Type 9
  5413.3858267716532,                     !- Feature Value 9
  EPWHeaderLocalPressure,                 !- Feature Name 10
  Double,                                 !- Feature Data Type 10
  0.81937567683596546,                    !- Feature Value 10
  EPWHeaderRecordsPerHour,                !- Feature Name 11
  Double,                                 !- Feature Data Type 11
  0,                                      !- Feature Value 11
  EPWDataAnnualAvgDrybulb,                !- Feature Name 12
  Double,                                 !- Feature Data Type 12
  51.575616438356228,                     !- Feature Value 12
  EPWDataAnnualMinDrybulb,                !- Feature Name 13
  Double,                                 !- Feature Data Type 13
  -2.9200000000000017,                    !- Feature Value 13
  EPWDataAnnualMaxDrybulb,                !- Feature Name 14
  Double,                                 !- Feature Data Type 14
  104,                                    !- Feature Value 14
  EPWDataCDD50F,                          !- Feature Name 15
  Double,                                 !- Feature Data Type 15
  3072.2925000000005,                     !- Feature Value 15
  EPWDataCDD65F,                          !- Feature Name 16
  Double,                                 !- Feature Data Type 16
  883.62000000000035,                     !- Feature Value 16
  EPWDataHDD50F,                          !- Feature Name 17
  Double,                                 !- Feature Data Type 17
  2497.1925000000001,                     !- Feature Value 17
  EPWDataHDD65F,                          !- Feature Name 18
  Double,                                 !- Feature Data Type 18
  5783.5200000000013,                     !- Feature Value 18
  EPWDataAnnualAvgWindspeed,              !- Feature Name 19
  Double,                                 !- Feature Data Type 19
  3.9165296803649667,                     !- Feature Value 19
  EPWDataMonthlyAvgDrybulbs,              !- Feature Name 20
  String,                                 !- Feature Data Type 20
  33.4191935483871&#4431.90142857142857&#4443.02620967741937&#4442.48624999999999&#4459.877741935483854&#4473.57574999999997&#4472.07975806451608&#4472.70008064516134&#4466.49200000000006&#4450.079112903225806&#4437.218250000000005&#4434.582177419354835, !- Feature Value 20
  EPWDataGroundMonthlyTemps,              !- Feature Name 21
  String,                                 !- Feature Data Type 21
  44.08306285945173&#4440.89570904991865&#4440.64045432632048&#4442.153016571250646&#4448.225111118704206&#4454.268919273837525&#4459.508577937551024&#4462.82777283423508&#4463.10975667174995&#4460.41014950381947&#4455.304105212311526&#4449.445696474514364, !- Feature Value 21
  EPWDataWSF,                             !- Feature Name 22
  Double,                                 !- Feature Data Type 22
  0.58999999999999997,                    !- Feature Value 22
  EPWDataMonthlyAvgDailyHighDrybulbs,     !- Feature Name 23
  String,                                 !- Feature Data Type 23
  47.41032258064516&#4446.58642857142857&#4455.15032258064517&#4453.708&#4472.80193548387098&#4488.67600000000002&#4486.1858064516129&#4485.87225806451613&#4482.082&#4463.18064516129033&#4448.73400000000001&#4448.87935483870968, !- Feature Value 23
  EPWDataMonthlyAvgDailyLowDrybulbs,      !- Feature Name 24
  String,                                 !- Feature Data Type 24
  19.347741935483874&#4419.856428571428573&#4430.316129032258065&#4431.112&#4447.41612903225806&#4457.901999999999994&#4459.063870967741934&#4460.956774193548384&#4452.352000000000004&#4438.41612903225806&#4427.002000000000002&#4423.02903225806451, !- Feature Value 24
  EPWDesignHeatingDrybulb,                !- Feature Name 25
  Double,                                 !- Feature Data Type 25
  12.02,                                  !- Feature Value 25
  EPWDesignHeatingWindspeed,              !- Feature Name 26
  Double,                                 !- Feature Data Type 26
  2.8062500000000004,                     !- Feature Value 26
  EPWDesignCoolingDrybulb,                !- Feature Name 27
  Double,                                 !- Feature Data Type 27
  91.939999999999998,                     !- Feature Value 27
  EPWDesignCoolingWetbulb,                !- Feature Name 28
  Double,                                 !- Feature Data Type 28
  59.95131430195849,                      !- Feature Value 28
  EPWDesignCoolingHumidityRatio,          !- Feature Name 29
  Double,                                 !- Feature Data Type 29
  0.0059161086834698092,                  !- Feature Value 29
  EPWDesignCoolingWindspeed,              !- Feature Name 30
  Double,                                 !- Feature Data Type 30
  3.7999999999999989,                     !- Feature Value 30
  EPWDesignDailyTemperatureRange,         !- Feature Name 31
  Double,                                 !- Feature Data Type 31
  24.915483870967748,                     !- Feature Value 31
  EPWDesignDehumidDrybulb,                !- Feature Name 32
  Double,                                 !- Feature Data Type 32
  67.996785714285721,                     !- Feature Value 32
  EPWDesignDehumidHumidityRatio,          !- Feature Name 33
  Double,                                 !- Feature Data Type 33
  0.012133744170488724,                   !- Feature Value 33
  EPWDesignCoolingDirectNormal,           !- Feature Name 34
  Double,                                 !- Feature Data Type 34
  985,                                    !- Feature Value 34
  EPWDesignCoolingDiffuseHorizontal,      !- Feature Name 35
  Double,                                 !- Feature Data Type 35
  84;                                     !- Feature Value 35

OS:Site,
  {96049ab4-f559-4e61-9ac7-49a399daa268}, !- Handle
  Denver Intl Ap_CO_USA,                  !- Name
  39.83,                                  !- Latitude {deg}
  -104.65,                                !- Longitude {deg}
  -7,                                     !- Time Zone {hr}
  1650,                                   !- Elevation {m}
  Suburbs;                                !- Terrain

OS:ClimateZones,
  {ceaa2b91-47bf-4463-8bc2-f9a26ab6760b}, !- Handle
  ,                                       !- Active Institution
  ,                                       !- Active Year
  ,                                       !- Climate Zone Institution Name 1
  ,                                       !- Climate Zone Document Name 1
  ,                                       !- Climate Zone Document Year 1
  ,                                       !- Climate Zone Value 1
  Building America,                       !- Climate Zone Institution Name 2
  ,                                       !- Climate Zone Document Name 2
  0,                                      !- Climate Zone Document Year 2
  Cold;                                   !- Climate Zone Value 2

OS:Site:WaterMainsTemperature,
  {8c97a44b-5255-4b60-9446-937f311dd21b}, !- Handle
  Correlation,                            !- Calculation Method
  ,                                       !- Temperature Schedule Name
  10.8753424657535,                       !- Annual Average Outdoor Air Temperature {C}
  23.1524007936508;                       !- Maximum Difference In Monthly Average Outdoor Air Temperatures {deltaC}

OS:RunPeriodControl:DaylightSavingTime,
  {e0d65cc2-e305-4493-8c2d-9a7b81ee6d22}, !- Handle
  4/7,                                    !- Start Date
  10/26;                                  !- End Date

OS:Site:GroundTemperature:Deep,
  {29700c67-67b7-47fb-b008-3d0648ed4c3b}, !- Handle
  10.8753424657535,                       !- January Deep Ground Temperature {C}
  10.8753424657535,                       !- February Deep Ground Temperature {C}
  10.8753424657535,                       !- March Deep Ground Temperature {C}
  10.8753424657535,                       !- April Deep Ground Temperature {C}
  10.8753424657535,                       !- May Deep Ground Temperature {C}
  10.8753424657535,                       !- June Deep Ground Temperature {C}
  10.8753424657535,                       !- July Deep Ground Temperature {C}
  10.8753424657535,                       !- August Deep Ground Temperature {C}
  10.8753424657535,                       !- September Deep Ground Temperature {C}
  10.8753424657535,                       !- October Deep Ground Temperature {C}
  10.8753424657535,                       !- November Deep Ground Temperature {C}
  10.8753424657535;                       !- December Deep Ground Temperature {C}

OS:Building,
  {6a9b2c13-1d0a-4b85-9e4a-9812ad06b72b}, !- Handle
  Building 1,                             !- Name
  ,                                       !- Building Sector Type
  22.5,                                   !- North Axis {deg}
  ,                                       !- Nominal Floor to Floor Height {m}
  ,                                       !- Space Type Name
  ,                                       !- Default Construction Set Name
  ,                                       !- Default Schedule Set Name
  3,                                      !- Standards Number of Stories
  3,                                      !- Standards Number of Above Ground Stories
  ,                                       !- Standards Template
  singlefamilydetached,                   !- Standards Building Type
  1;                                      !- Standards Number of Living Units

OS:AdditionalProperties,
  {ef4e933d-ae02-4106-8df2-319c971e5a5a}, !- Handle
  {6a9b2c13-1d0a-4b85-9e4a-9812ad06b72b}, !- Object Name
  Total Units Modeled,                    !- Feature Name 1
  Integer,                                !- Feature Data Type 1
  1,                                      !- Feature Value 1
  has_water_heater_flue,                  !- Feature Name 2
  Boolean,                                !- Feature Data Type 2
  true;                                   !- Feature Value 2

OS:ThermalZone,
  {ec85e4b9-164b-43d3-9b41-424abe945a47}, !- Handle
  living zone,                            !- Name
  ,                                       !- Multiplier
  ,                                       !- Ceiling Height {m}
  ,                                       !- Volume {m3}
  ,                                       !- Floor Area {m2}
  ,                                       !- Zone Inside Convection Algorithm
  ,                                       !- Zone Outside Convection Algorithm
  ,                                       !- Zone Conditioning Equipment List Name
  {54aa5932-d2e0-4117-862a-f4f8505d3f08}, !- Zone Air Inlet Port List
  {ee97bdbe-1d41-4597-bbd0-cdfcb365ba80}, !- Zone Air Exhaust Port List
  {23aeb9ef-52cf-4fab-8837-124a18665e11}, !- Zone Air Node Name
  {8ddd93ee-0484-4737-b770-f1330966a57a}, !- Zone Return Air Port List
  ,                                       !- Primary Daylighting Control Name
  ,                                       !- Fraction of Zone Controlled by Primary Daylighting Control
  ,                                       !- Secondary Daylighting Control Name
  ,                                       !- Fraction of Zone Controlled by Secondary Daylighting Control
  ,                                       !- Illuminance Map Name
  ,                                       !- Group Rendering Name
  ,                                       !- Thermostat Name
  No;                                     !- Use Ideal Air Loads

OS:Node,
  {8e63a9d8-911b-4de9-8706-b2cca7110fcf}, !- Handle
  Node 1,                                 !- Name
  {23aeb9ef-52cf-4fab-8837-124a18665e11}, !- Inlet Port
  ;                                       !- Outlet Port

OS:Connection,
  {23aeb9ef-52cf-4fab-8837-124a18665e11}, !- Handle
  {0e7e81f7-be45-44aa-84a1-7b4229a03647}, !- Name
  {ec85e4b9-164b-43d3-9b41-424abe945a47}, !- Source Object
  11,                                     !- Outlet Port
  {8e63a9d8-911b-4de9-8706-b2cca7110fcf}, !- Target Object
  2;                                      !- Inlet Port

OS:PortList,
  {54aa5932-d2e0-4117-862a-f4f8505d3f08}, !- Handle
  {28f253d4-42dc-49ee-928c-7ef5c6e4c1da}, !- Name
  {ec85e4b9-164b-43d3-9b41-424abe945a47}; !- HVAC Component

OS:PortList,
  {ee97bdbe-1d41-4597-bbd0-cdfcb365ba80}, !- Handle
  {a9e52b50-f770-402f-9ff3-b0cc8a95a0e1}, !- Name
  {ec85e4b9-164b-43d3-9b41-424abe945a47}; !- HVAC Component

OS:PortList,
  {8ddd93ee-0484-4737-b770-f1330966a57a}, !- Handle
  {7694668f-eed4-4960-b7a0-477148e484d4}, !- Name
  {ec85e4b9-164b-43d3-9b41-424abe945a47}; !- HVAC Component

OS:Sizing:Zone,
  {30a9e578-82df-4247-b41d-f3873a2a70bb}, !- Handle
  {ec85e4b9-164b-43d3-9b41-424abe945a47}, !- Zone or ZoneList Name
  SupplyAirTemperature,                   !- Zone Cooling Design Supply Air Temperature Input Method
  14,                                     !- Zone Cooling Design Supply Air Temperature {C}
  11.11,                                  !- Zone Cooling Design Supply Air Temperature Difference {deltaC}
  SupplyAirTemperature,                   !- Zone Heating Design Supply Air Temperature Input Method
  40,                                     !- Zone Heating Design Supply Air Temperature {C}
  11.11,                                  !- Zone Heating Design Supply Air Temperature Difference {deltaC}
  0.0085,                                 !- Zone Cooling Design Supply Air Humidity Ratio {kg-H2O/kg-air}
  0.008,                                  !- Zone Heating Design Supply Air Humidity Ratio {kg-H2O/kg-air}
  ,                                       !- Zone Heating Sizing Factor
  ,                                       !- Zone Cooling Sizing Factor
  DesignDay,                              !- Cooling Design Air Flow Method
  ,                                       !- Cooling Design Air Flow Rate {m3/s}
  ,                                       !- Cooling Minimum Air Flow per Zone Floor Area {m3/s-m2}
  ,                                       !- Cooling Minimum Air Flow {m3/s}
  ,                                       !- Cooling Minimum Air Flow Fraction
  DesignDay,                              !- Heating Design Air Flow Method
  ,                                       !- Heating Design Air Flow Rate {m3/s}
  ,                                       !- Heating Maximum Air Flow per Zone Floor Area {m3/s-m2}
  ,                                       !- Heating Maximum Air Flow {m3/s}
  ,                                       !- Heating Maximum Air Flow Fraction
  ,                                       !- Design Zone Air Distribution Effectiveness in Cooling Mode
  ,                                       !- Design Zone Air Distribution Effectiveness in Heating Mode
  No,                                     !- Account for Dedicated Outdoor Air System
  NeutralSupplyAir,                       !- Dedicated Outdoor Air System Control Strategy
  autosize,                               !- Dedicated Outdoor Air Low Setpoint Temperature for Design {C}
  autosize;                               !- Dedicated Outdoor Air High Setpoint Temperature for Design {C}

OS:ZoneHVAC:EquipmentList,
  {7fc377ba-0c2d-4dc8-a6de-55ee9f45c75e}, !- Handle
  Zone HVAC Equipment List 1,             !- Name
  {ec85e4b9-164b-43d3-9b41-424abe945a47}; !- Thermal Zone

OS:ThermalZone,
  {c4313e1f-ff3c-4b30-ac43-9c422d716efc}, !- Handle
  garage zone,                            !- Name
  ,                                       !- Multiplier
  ,                                       !- Ceiling Height {m}
  ,                                       !- Volume {m3}
  ,                                       !- Floor Area {m2}
  ,                                       !- Zone Inside Convection Algorithm
  ,                                       !- Zone Outside Convection Algorithm
  ,                                       !- Zone Conditioning Equipment List Name
  {69ffc826-ca2f-45f4-bd9b-6a416d0bb8ae}, !- Zone Air Inlet Port List
  {d4360dce-36e5-4d51-b7ec-5e905fae4f90}, !- Zone Air Exhaust Port List
  {d3f7b0c7-a52d-43ea-874a-3636810b9316}, !- Zone Air Node Name
  {64552bc4-a6cc-47ed-bcc2-1b58e0bd3645}, !- Zone Return Air Port List
  ,                                       !- Primary Daylighting Control Name
  ,                                       !- Fraction of Zone Controlled by Primary Daylighting Control
  ,                                       !- Secondary Daylighting Control Name
  ,                                       !- Fraction of Zone Controlled by Secondary Daylighting Control
  ,                                       !- Illuminance Map Name
  ,                                       !- Group Rendering Name
  ,                                       !- Thermostat Name
  No;                                     !- Use Ideal Air Loads

OS:Node,
  {a0d15bdf-f05b-42c6-a176-ce553fec04b5}, !- Handle
  Node 2,                                 !- Name
  {d3f7b0c7-a52d-43ea-874a-3636810b9316}, !- Inlet Port
  ;                                       !- Outlet Port

OS:Connection,
  {d3f7b0c7-a52d-43ea-874a-3636810b9316}, !- Handle
  {ce248bc9-6db8-4d90-bbec-f70bfc798f01}, !- Name
  {c4313e1f-ff3c-4b30-ac43-9c422d716efc}, !- Source Object
  11,                                     !- Outlet Port
  {a0d15bdf-f05b-42c6-a176-ce553fec04b5}, !- Target Object
  2;                                      !- Inlet Port

OS:PortList,
  {69ffc826-ca2f-45f4-bd9b-6a416d0bb8ae}, !- Handle
  {3ba3e405-74a9-4349-a3e6-d67c5955fc9e}, !- Name
  {c4313e1f-ff3c-4b30-ac43-9c422d716efc}; !- HVAC Component

OS:PortList,
  {d4360dce-36e5-4d51-b7ec-5e905fae4f90}, !- Handle
  {d37a3240-1291-4071-8dc3-b6fc6445709d}, !- Name
  {c4313e1f-ff3c-4b30-ac43-9c422d716efc}; !- HVAC Component

OS:PortList,
  {64552bc4-a6cc-47ed-bcc2-1b58e0bd3645}, !- Handle
  {7d0f5480-5b96-4ea5-a181-feeb960d2d38}, !- Name
  {c4313e1f-ff3c-4b30-ac43-9c422d716efc}; !- HVAC Component

OS:Sizing:Zone,
  {ad9888bb-4909-4ec4-aa66-57aafc397fbd}, !- Handle
  {c4313e1f-ff3c-4b30-ac43-9c422d716efc}, !- Zone or ZoneList Name
  SupplyAirTemperature,                   !- Zone Cooling Design Supply Air Temperature Input Method
  14,                                     !- Zone Cooling Design Supply Air Temperature {C}
  11.11,                                  !- Zone Cooling Design Supply Air Temperature Difference {deltaC}
  SupplyAirTemperature,                   !- Zone Heating Design Supply Air Temperature Input Method
  40,                                     !- Zone Heating Design Supply Air Temperature {C}
  11.11,                                  !- Zone Heating Design Supply Air Temperature Difference {deltaC}
  0.0085,                                 !- Zone Cooling Design Supply Air Humidity Ratio {kg-H2O/kg-air}
  0.008,                                  !- Zone Heating Design Supply Air Humidity Ratio {kg-H2O/kg-air}
  ,                                       !- Zone Heating Sizing Factor
  ,                                       !- Zone Cooling Sizing Factor
  DesignDay,                              !- Cooling Design Air Flow Method
  ,                                       !- Cooling Design Air Flow Rate {m3/s}
  ,                                       !- Cooling Minimum Air Flow per Zone Floor Area {m3/s-m2}
  ,                                       !- Cooling Minimum Air Flow {m3/s}
  ,                                       !- Cooling Minimum Air Flow Fraction
  DesignDay,                              !- Heating Design Air Flow Method
  ,                                       !- Heating Design Air Flow Rate {m3/s}
  ,                                       !- Heating Maximum Air Flow per Zone Floor Area {m3/s-m2}
  ,                                       !- Heating Maximum Air Flow {m3/s}
  ,                                       !- Heating Maximum Air Flow Fraction
  ,                                       !- Design Zone Air Distribution Effectiveness in Cooling Mode
  ,                                       !- Design Zone Air Distribution Effectiveness in Heating Mode
  No,                                     !- Account for Dedicated Outdoor Air System
  NeutralSupplyAir,                       !- Dedicated Outdoor Air System Control Strategy
  autosize,                               !- Dedicated Outdoor Air Low Setpoint Temperature for Design {C}
  autosize;                               !- Dedicated Outdoor Air High Setpoint Temperature for Design {C}

OS:ZoneHVAC:EquipmentList,
  {9d2ffce2-80a8-46cd-967d-2ac66ba9573b}, !- Handle
  Zone HVAC Equipment List 2,             !- Name
  {c4313e1f-ff3c-4b30-ac43-9c422d716efc}; !- Thermal Zone

OS:Space,
  {39d6bac9-8441-44ae-9ba5-8757ff510731}, !- Handle
  garage space,                           !- Name
  {9c4af5ad-c77f-4d22-9893-0698e80f1aa4}, !- Space Type Name
  ,                                       !- Default Construction Set Name
  ,                                       !- Default Schedule Set Name
  -0,                                     !- Direction of Relative North {deg}
  0,                                      !- X Origin {m}
  0,                                      !- Y Origin {m}
  0,                                      !- Z Origin {m}
  ,                                       !- Building Story Name
  {c4313e1f-ff3c-4b30-ac43-9c422d716efc}; !- Thermal Zone Name

OS:Surface,
  {3e4e33ac-4299-4718-b0bd-76608d6d79bc}, !- Handle
  Surface 1,                              !- Name
  Floor,                                  !- Surface Type
  {adcf6d37-f4cb-4712-9a73-d69c6fc1931e}, !- Construction Name
  {39d6bac9-8441-44ae-9ba5-8757ff510731}, !- Space Name
  Foundation,                             !- Outside Boundary Condition
  {1cd7869e-a66a-489c-b2a2-18f46eea25a9}, !- Outside Boundary Condition Object
  NoSun,                                  !- Sun Exposure
  NoWind,                                 !- Wind Exposure
  ,                                       !- View Factor to Ground
  ,                                       !- Number of Vertices
  7.6199999993904, -3.048, 0,             !- X,Y,Z Vertex 1 {m}
  7.6199999993904, 3.048, 0,              !- X,Y,Z Vertex 2 {m}
  11.2775999993904, 3.048, 0,             !- X,Y,Z Vertex 3 {m}
  11.2775999993904, -3.048, 0;            !- X,Y,Z Vertex 4 {m}

OS:Surface,
  {dcde57cf-ddef-4d4d-8748-d34c7d439b56}, !- Handle
  Surface 2,                              !- Name
  Wall,                                   !- Surface Type
  {3b66117c-7d4f-4864-af38-393ef6e31f48}, !- Construction Name
  {39d6bac9-8441-44ae-9ba5-8757ff510731}, !- Space Name
  Surface,                                !- Outside Boundary Condition
  {5191733c-693f-4cf4-a87a-c78fc2a498ab}, !- Outside Boundary Condition Object
  NoSun,                                  !- Sun Exposure
  NoWind,                                 !- Wind Exposure
  ,                                       !- View Factor to Ground
  ,                                       !- Number of Vertices
  7.6199999993904, 3.048, 2.4384,         !- X,Y,Z Vertex 1 {m}
  7.6199999993904, 3.048, 0,              !- X,Y,Z Vertex 2 {m}
  7.6199999993904, 0, 0,                  !- X,Y,Z Vertex 3 {m}
  7.6199999993904, 0, 2.4384;             !- X,Y,Z Vertex 4 {m}

OS:Surface,
  {203933ba-5789-4e45-8aae-a75c41aba166}, !- Handle
  Surface 3,                              !- Name
  Wall,                                   !- Surface Type
  {3b66117c-7d4f-4864-af38-393ef6e31f48}, !- Construction Name
  {39d6bac9-8441-44ae-9ba5-8757ff510731}, !- Space Name
  Surface,                                !- Outside Boundary Condition
  {8717d93e-75fd-450a-96ce-ffb5a429d1e1}, !- Outside Boundary Condition Object
  NoSun,                                  !- Sun Exposure
  NoWind,                                 !- Wind Exposure
  ,                                       !- View Factor to Ground
  ,                                       !- Number of Vertices
  11.2775999993904, 3.048, 2.4384,        !- X,Y,Z Vertex 1 {m}
  11.2775999993904, 3.048, 0,             !- X,Y,Z Vertex 2 {m}
  7.6199999993904, 3.048, 0,              !- X,Y,Z Vertex 3 {m}
  7.6199999993904, 3.048, 2.4384;         !- X,Y,Z Vertex 4 {m}

OS:Surface,
  {2a4cc133-6238-4d41-86b5-7b8afd97f1b4}, !- Handle
  Surface 4,                              !- Name
  Wall,                                   !- Surface Type
  {01fb5706-e193-493f-adb6-6e66e5455211}, !- Construction Name
  {39d6bac9-8441-44ae-9ba5-8757ff510731}, !- Space Name
  Outdoors,                               !- Outside Boundary Condition
  ,                                       !- Outside Boundary Condition Object
  SunExposed,                             !- Sun Exposure
  WindExposed,                            !- Wind Exposure
  ,                                       !- View Factor to Ground