!- NOTE: Auto-generated from /test/osw_files/SFD_Successful_EnergyPlus_Run_AMY_PV.osw

OS:Version,
  {c13da535-aa0f-46c1-b349-c23101c7656c}, !- Handle
  2.9.0;                                  !- Version Identifier

OS:SimulationControl,
  {351baa59-7c05-4f99-92b7-a3777065948b}, !- Handle
  ,                                       !- Do Zone Sizing Calculation
  ,                                       !- Do System Sizing Calculation
  ,                                       !- Do Plant Sizing Calculation
  No;                                     !- Run Simulation for Sizing Periods

OS:Timestep,
  {e427f917-1c4b-45d7-88b5-9e208fc16576}, !- Handle
  6;                                      !- Number of Timesteps per Hour

OS:ShadowCalculation,
  {b538a51e-0bb5-48da-88e0-5965223cd1b7}, !- Handle
  20,                                     !- Calculation Frequency
  200;                                    !- Maximum Figures in Shadow Overlap Calculations

OS:SurfaceConvectionAlgorithm:Outside,
  {1b3e3bda-851e-464d-8cb4-8a2b4eb2498d}, !- Handle
  DOE-2;                                  !- Algorithm

OS:SurfaceConvectionAlgorithm:Inside,
  {dbe5bcb4-39ff-4637-92e7-9632c1a3fe3e}, !- Handle
  TARP;                                   !- Algorithm

OS:ZoneCapacitanceMultiplier:ResearchSpecial,
  {83c9603e-4e68-4e0b-b182-cb06e51cf843}, !- Handle
  ,                                       !- Temperature Capacity Multiplier
  15,                                     !- Humidity Capacity Multiplier
  ;                                       !- Carbon Dioxide Capacity Multiplier

OS:RunPeriod,
  {1d0b5398-bf11-4b75-be07-7ead5d2e9425}, !- Handle
  Run Period 1,                           !- Name
  1,                                      !- Begin Month
  1,                                      !- Begin Day of Month
  12,                                     !- End Month
  31,                                     !- End Day of Month
  ,                                       !- Use Weather File Holidays and Special Days
  ,                                       !- Use Weather File Daylight Saving Period
  ,                                       !- Apply Weekend Holiday Rule
  ,                                       !- Use Weather File Rain Indicators
  ,                                       !- Use Weather File Snow Indicators
  ;                                       !- Number of Times Runperiod to be Repeated

OS:YearDescription,
  {4b1e3513-a56a-4479-b917-e5f05c117766}, !- Handle
  2012,                                   !- Calendar Year
  ,                                       !- Day of Week for Start Day
  ;                                       !- Is Leap Year

OS:WeatherFile,
  {2cde2003-1a13-4a27-8f84-dc39e9805f5d}, !- Handle
  Boulder,                                !- City
  CO,                                     !- State Province Region
  US,                                     !- Country
  NSRDB 2.0.1 2012 AMY,                   !- Data Source
  0-20000-0-72469,                        !- WMO Number
  40.13,                                  !- Latitude {deg}
  -105.22,                                !- Longitude {deg}
  -7,                                     !- Time Zone {hr}
  1615.5,                                 !- Elevation {m}
  file:../weather/0465925_US_CO_Boulder_8013_0-20000-0-72469_40.13_-105.22_NSRDB_2.0.1_AMY_2012.epw, !- Url
  0F4A54A0;                               !- Checksum

OS:AdditionalProperties,
  {a6b00a65-b6db-4ea7-b6b0-0f3aa49bcf6d}, !- Handle
  {2cde2003-1a13-4a27-8f84-dc39e9805f5d}, !- Object Name
  EPWHeaderCity,                          !- Feature Name 1
  String,                                 !- Feature Data Type 1
  Boulder,                                !- Feature Value 1
  EPWHeaderState,                         !- Feature Name 2
  String,                                 !- Feature Data Type 2
  CO,                                     !- Feature Value 2
  EPWHeaderCountry,                       !- Feature Name 3
  String,                                 !- Feature Data Type 3
  US,                                     !- Feature Value 3
  EPWHeaderDataSource,                    !- Feature Name 4
  String,                                 !- Feature Data Type 4
  NSRDB 2.0.1 2012 AMY,                   !- Feature Value 4
  EPWHeaderStation,                       !- Feature Name 5
  String,                                 !- Feature Data Type 5
  0-20000-0-72469,                        !- Feature Value 5
  EPWHeaderLatitude,                      !- Feature Name 6
  Double,                                 !- Feature Data Type 6
  40.130000000000003,                     !- Feature Value 6
  EPWHeaderLongitude,                     !- Feature Name 7
  Double,                                 !- Feature Data Type 7
  -105.22,                                !- Feature Value 7
  EPWHeaderTimezone,                      !- Feature Name 8
  Double,                                 !- Feature Data Type 8
  -7,                                     !- Feature Value 8
  EPWHeaderAltitude,                      !- Feature Name 9
  Double,                                 !- Feature Data Type 9
  5300.1968503937005,                     !- Feature Value 9
  EPWHeaderLocalPressure,                 !- Feature Name 10
  Double,                                 !- Feature Data Type 10
  0.82279578489595584,                    !- Feature Value 10
  EPWHeaderRecordsPerHour,                !- Feature Name 11
  Double,                                 !- Feature Data Type 11
  1,                                      !- Feature Value 11
  EPWDataAnnualAvgDrybulb,                !- Feature Name 12
  Double,                                 !- Feature Data Type 12
  49.373852459016362,                     !- Feature Value 12
  EPWDataAnnualMinDrybulb,                !- Feature Name 13
  Double,                                 !- Feature Data Type 13
  5.1799999999999997,                     !- Feature Value 13
  EPWDataAnnualMaxDrybulb,                !- Feature Name 14
  Double,                                 !- Feature Data Type 14
  100.22,                                 !- Feature Value 14
  EPWDataCDD50F,                          !- Feature Name 15
  Double,                                 !- Feature Data Type 15
  2633.8050000000003,                     !- Feature Value 15
  EPWDataCDD65F,                          !- Feature Name 16
  Double,                                 !- Feature Data Type 16
  609.09000000000049,                     !- Feature Value 16
  EPWDataHDD50F,                          !- Feature Name 17
  Double,                                 !- Feature Data Type 17
  2862.9750000000008,                     !- Feature Value 17
  EPWDataHDD65F,                          !- Feature Name 18
  Double,                                 !- Feature Data Type 18
  6328.2600000000002,                     !- Feature Value 18
  EPWDataAnnualAvgWindspeed,              !- Feature Name 19
  Double,                                 !- Feature Data Type 19
  3.1285632969034616,                     !- Feature Value 19
  EPWDataMonthlyAvgDrybulbs,              !- Feature Name 20
  String,                                 !- Feature Data Type 20
  30.756693548387098&#4426.408620689655166&#4442.98798387096775&#4449.43600000000001&#4456.781451612903226&#4471.08874999999998&#4471.22572580645158&#4470.36758064516127&#4460.752750000000006&#4445.266048387096774&#4439.64775&#4427.041048387096776, !- Feature Value 20
  EPWDataGroundMonthlyTemps,              !- Feature Name 21
  String,                                 !- Feature Data Type 21
  41.29137700627439&#4437.863655430265&#4437.5891511939173&#4439.21578022596816&#4445.74578936070071&#4452.24537894270793&#4457.88017574462509&#4461.44968093363656&#4461.75293000534151&#4458.849737486020615&#4453.358631310824705&#4447.05842266389976, !- Feature Value 21
  EPWDataWSF,                             !- Feature Name 22
  Double,                                 !- Feature Data Type 22
  0.55793636363636512,                    !- Feature Value 22
  EPWDataMonthlyAvgDailyHighDrybulbs,     !- Feature Name 23
  String,                                 !- Feature Data Type 23
  42.428387096774195&#4437.65071428571429&#4458.03032258064516&#4466.30799999999999&#4473.79483870967744&#4488.50800000000001&#4486.47612903225806&#4487.48064516129034&#4477.17399999999999&#4461.35741935483871&#4454.824&#4439.292903225806455, !- Feature Value 23
  EPWDataMonthlyAvgDailyLowDrybulbs,      !- Feature Name 24
  String,                                 !- Feature Data Type 24
  22.123225806451615&#4417.252857142857145&#4429.69483870967742&#4434.652&#4440.51806451612903&#4453.60000000000001&#4457.5658064516129&#4455.580000000000005&#4448.368&#4433.69548387096774&#4430.266000000000002&#4419.55677419354839, !- Feature Value 24
  EPWDesignHeatingDrybulb,                !- Feature Name 25
  Double,                                 !- Feature Data Type 25
  10.219999999999999,                     !- Feature Value 25
  EPWDesignHeatingWindspeed,              !- Feature Name 26
  Double,                                 !- Feature Data Type 26
  3.5214285714285722,                     !- Feature Value 26
  EPWDesignCoolingDrybulb,                !- Feature Name 27
  Double,                                 !- Feature Data Type 27
  91.400000000000006,                     !- Feature Value 27
  EPWDesignCoolingWetbulb,                !- Feature Name 28
  Double,                                 !- Feature Data Type 28
  57.984172199004441,                     !- Feature Value 28
  EPWDesignCoolingHumidityRatio,          !- Feature Name 29
  Double,                                 !- Feature Data Type 29
  0.0046138440452612025,                  !- Feature Value 29
  EPWDesignCoolingWindspeed,              !- Feature Name 30
  Double,                                 !- Feature Data Type 30
  1.929824561403509,                      !- Feature Value 30
  EPWDesignDailyTemperatureRange,         !- Feature Name 31
  Double,                                 !- Feature Data Type 31
  31.900645161290335,                     !- Feature Value 31
  EPWDesignDehumidDrybulb,                !- Feature Name 32
  Double,                                 !- Feature Data Type 32
  64.967341772151897,                     !- Feature Value 32
  EPWDesignDehumidHumidityRatio,          !- Feature Name 33
  Double,                                 !- Feature Data Type 33
  0.010155075083581143,                   !- Feature Value 33
  EPWDesignCoolingDirectNormal,           !- Feature Name 34
  Double,                                 !- Feature Data Type 34
  984,                                    !- Feature Value 34
  EPWDesignCoolingDiffuseHorizontal,      !- Feature Name 35
  Double,                                 !- Feature Data Type 35
  121;                                    !- Feature Value 35

OS:Site,
  {c9e40f55-e9e5-42de-a1f2-5540f881a668}, !- Handle
  Boulder_CO_US,                          !- Name
  40.13,                                  !- Latitude {deg}
  -105.22,                                !- Longitude {deg}
  -7,                                     !- Time Zone {hr}
  1615.5,                                 !- Elevation {m}
  Suburbs;                                !- Terrain

OS:Site:WaterMainsTemperature,
  {d932e6a0-9643-426f-8812-d9c70f61ec60}, !- Handle
  Correlation,                            !- Calculation Method
  ,                                       !- Temperature Schedule Name
  9.65214025500909,                       !- Annual Average Outdoor Air Temperature {C}
  24.8983917315536;                       !- Maximum Difference In Monthly Average Outdoor Air Temperatures {deltaC}

OS:RunPeriodControl:DaylightSavingTime,
  {498196ff-b3b6-4db7-bd8b-2bb57a991369}, !- Handle
  4/7,                                    !- Start Date
  10/26;                                  !- End Date

OS:Site:GroundTemperature:Deep,
  {a7d64e70-f067-4b9c-a077-4276ecfa95a6}, !- Handle
  9.65214025500909,                       !- January Deep Ground Temperature {C}
  9.65214025500909,                       !- February Deep Ground Temperature {C}
  9.65214025500909,                       !- March Deep Ground Temperature {C}
  9.65214025500909,                       !- April Deep Ground Temperature {C}
  9.65214025500909,                       !- May Deep Ground Temperature {C}
  9.65214025500909,                       !- June Deep Ground Temperature {C}
  9.65214025500909,                       !- July Deep Ground Temperature {C}
  9.65214025500909,                       !- August Deep Ground Temperature {C}
  9.65214025500909,                       !- September Deep Ground Temperature {C}
  9.65214025500909,                       !- October Deep Ground Temperature {C}
  9.65214025500909,                       !- November Deep Ground Temperature {C}
  9.65214025500909;                       !- December Deep Ground Temperature {C}

OS:Building,
  {eb5b8aee-2cb2-4979-96c7-18208a356173}, !- Handle
  Building 1,                             !- Name
  ,                                       !- Building Sector Type
  22.5,                                   !- North Axis {deg}
  ,                                       !- Nominal Floor to Floor Height {m}
  ,                                       !- Space Type Name
  ,                                       !- Default Construction Set Name
  ,                                       !- Default Schedule Set Name
  2,                                      !- Standards Number of Stories
  2,                                      !- Standards Number of Above Ground Stories
  ,                                       !- Standards Template
  singlefamilydetached,                   !- Standards Building Type
  1;                                      !- Standards Number of Living Units

OS:AdditionalProperties,
  {900e820a-3421-45ec-9142-d63608a8f111}, !- Handle
  {eb5b8aee-2cb2-4979-96c7-18208a356173}, !- Object Name
  Total Units Represented,                !- Feature Name 1
  Integer,                                !- Feature Data Type 1
  1,                                      !- Feature Value 1
  Total Units Modeled,                    !- Feature Name 2
  Integer,                                !- Feature Data Type 2
  1,                                      !- Feature Value 2
  has_water_heater_flue,                  !- Feature Name 3
  Boolean,                                !- Feature Data Type 3
  true,                                   !- Feature Value 3
  has_hvac_flue,                          !- Feature Name 4
  Boolean,                                !- Feature Data Type 4
  true;                                   !- Feature Value 4

OS:ThermalZone,
  {816a57a2-c661-4890-9c3f-75ecf02656b0}, !- Handle
  living zone,                            !- Name
  ,                                       !- Multiplier
  ,                                       !- Ceiling Height {m}
  ,                                       !- Volume {m3}
  ,                                       !- Floor Area {m2}
  ,                                       !- Zone Inside Convection Algorithm
  ,                                       !- Zone Outside Convection Algorithm
  ,                                       !- Zone Conditioning Equipment List Name
  {c52b856f-4138-4bfa-aae3-d410d1fd1334}, !- Zone Air Inlet Port List
  {4852eff9-43ec-4bec-82bf-b004687d1f81}, !- Zone Air Exhaust Port List
  {1d048bb2-5449-42a9-8c21-e5aaad127fa5}, !- Zone Air Node Name
  {88c1aa8a-5ecc-4b24-bd19-13b01bd9eb7d}, !- Zone Return Air Port List
  ,                                       !- Primary Daylighting Control Name
  ,                                       !- Fraction of Zone Controlled by Primary Daylighting Control
  ,                                       !- Secondary Daylighting Control Name
  ,                                       !- Fraction of Zone Controlled by Secondary Daylighting Control
  ,                                       !- Illuminance Map Name
  ,                                       !- Group Rendering Name
  {3ebdbf9e-4d70-48dc-b537-f6b95a345e44}, !- Thermostat Name
  No;                                     !- Use Ideal Air Loads

OS:Node,
  {9b20f112-0dba-41c2-a96a-fcd3813550aa}, !- Handle
  Node 1,                                 !- Name
  {1d048bb2-5449-42a9-8c21-e5aaad127fa5}, !- Inlet Port
  ;                                       !- Outlet Port

OS:Connection,
  {1d048bb2-5449-42a9-8c21-e5aaad127fa5}, !- Handle
  {452e57dd-bbdf-4e5e-95c8-5075097b831f}, !- Name
  {816a57a2-c661-4890-9c3f-75ecf02656b0}, !- Source Object
  11,                                     !- Outlet Port
  {9b20f112-0dba-41c2-a96a-fcd3813550aa}, !- Target Object
  2;                                      !- Inlet Port

OS:PortList,
  {c52b856f-4138-4bfa-aae3-d410d1fd1334}, !- Handle
  {0a79174a-d7c5-4ee7-b953-aaff375d7e4b}, !- Name
  {816a57a2-c661-4890-9c3f-75ecf02656b0}, !- HVAC Component
  {7f10273f-731c-4836-a651-8e4900bd3529}, !- Port 1
  {fa143ae9-4b5e-4c90-adb1-ede94404b446}; !- Port 2

OS:PortList,
  {4852eff9-43ec-4bec-82bf-b004687d1f81}, !- Handle
  {84aa52cf-4ad8-4d43-b199-306128b67bd2}, !- Name
  {816a57a2-c661-4890-9c3f-75ecf02656b0}; !- HVAC Component

OS:PortList,
  {88c1aa8a-5ecc-4b24-bd19-13b01bd9eb7d}, !- Handle
  {1d41ad60-65c9-46dc-b115-d03864682787}, !- Name
  {816a57a2-c661-4890-9c3f-75ecf02656b0}, !- HVAC Component
  {312d40be-80fd-45a1-bc92-2eccb7aab807}, !- Port 1
  {c4fe6e83-abdc-4e36-a069-9db55ecc42df}; !- Port 2

OS:Sizing:Zone,
  {a3b233b4-f96d-4c43-908d-d5d400cdb0f6}, !- Handle
  {816a57a2-c661-4890-9c3f-75ecf02656b0}, !- Zone or ZoneList Name
  SupplyAirTemperature,                   !- Zone Cooling Design Supply Air Temperature Input Method
  14,                                     !- Zone Cooling Design Supply Air Temperature {C}
  11.11,                                  !- Zone Cooling Design Supply Air Temperature Difference {deltaC}
  SupplyAirTemperature,                   !- Zone Heating Design Supply Air Temperature Input Method
  40,                                     !- Zone Heating Design Supply Air Temperature {C}
  11.11,                                  !- Zone Heating Design Supply Air Temperature Difference {deltaC}
  0.0085,                                 !- Zone Cooling Design Supply Air Humidity Ratio {kg-H2O/kg-air}
  0.008,                                  !- Zone Heating Design Supply Air Humidity Ratio {kg-H2O/kg-air}
  ,                                       !- Zone Heating Sizing Factor
  ,                                       !- Zone Cooling Sizing Factor
  DesignDay,                              !- Cooling Design Air Flow Method
  ,                                       !- Cooling Design Air Flow Rate {m3/s}
  ,                                       !- Cooling Minimum Air Flow per Zone Floor Area {m3/s-m2}
  ,                                       !- Cooling Minimum Air Flow {m3/s}
  ,                                       !- Cooling Minimum Air Flow Fraction
  DesignDay,                              !- Heating Design Air Flow Method
  ,                                       !- Heating Design Air Flow Rate {m3/s}
  ,                                       !- Heating Maximum Air Flow per Zone Floor Area {m3/s-m2}
  ,                                       !- Heating Maximum Air Flow {m3/s}
  ,                                       !- Heating Maximum Air Flow Fraction
  ,                                       !- Design Zone Air Distribution Effectiveness in Cooling Mode
  ,                                       !- Design Zone Air Distribution Effectiveness in Heating Mode
  No,                                     !- Account for Dedicated Outdoor Air System
  NeutralSupplyAir,                       !- Dedicated Outdoor Air System Control Strategy
  autosize,                               !- Dedicated Outdoor Air Low Setpoint Temperature for Design {C}
  autosize;                               !- Dedicated Outdoor Air High Setpoint Temperature for Design {C}

OS:ZoneHVAC:EquipmentList,
  {31b63937-93c8-4ee7-916a-96dcc03c7a41}, !- Handle
  Zone HVAC Equipment List 1,             !- Name
  {816a57a2-c661-4890-9c3f-75ecf02656b0}, !- Thermal Zone
  SequentialLoad,                         !- Load Distribution Scheme
  {8ed95dc7-20da-4d07-a40f-2528e0d95ca7}, !- Zone Equipment 1
  1,                                      !- Zone Equipment Cooling Sequence 1
  1,                                      !- Zone Equipment Heating or No-Load Sequence 1
  ,                                       !- Zone Equipment Sequential Cooling Fraction Schedule Name 1
  ,                                       !- Zone Equipment Sequential Heating Fraction Schedule Name 1
  {8e290299-b2db-41d4-8fd1-fa70a090e7d9}, !- Zone Equipment 2
  2,                                      !- Zone Equipment Cooling Sequence 2
  2,                                      !- Zone Equipment Heating or No-Load Sequence 2
  ,                                       !- Zone Equipment Sequential Cooling Fraction Schedule Name 2
  ;                                       !- Zone Equipment Sequential Heating Fraction Schedule Name 2

OS:Space,
  {ad864563-2728-4cb3-b5f4-5f44f69b1cef}, !- Handle
  living space,                           !- Name
  {384719f5-2b2e-4668-9262-30b6f0fed249}, !- Space Type Name
  ,                                       !- Default Construction Set Name
  ,                                       !- Default Schedule Set Name
  -0,                                     !- Direction of Relative North {deg}
  0,                                      !- X Origin {m}
  0,                                      !- Y Origin {m}
  0,                                      !- Z Origin {m}
  ,                                       !- Building Story Name
  {816a57a2-c661-4890-9c3f-75ecf02656b0}, !- Thermal Zone Name
  ,                                       !- Part of Total Floor Area
  ,                                       !- Design Specification Outdoor Air Object Name
  {fa182864-1064-41cb-a3d3-895a5be56c77}; !- Building Unit Name

OS:Surface,
  {48b413fd-366c-405f-bce7-deb5928d32ae}, !- Handle
  Surface 1,                              !- Name
  Floor,                                  !- Surface Type
  {4570eb13-e555-4ca4-8207-4ba14d3e0873}, !- Construction Name
  {ad864563-2728-4cb3-b5f4-5f44f69b1cef}, !- Space Name
  Foundation,                             !- Outside Boundary Condition
  {13f702d3-9aff-4c50-881c-d0b26ed0b46d}, !- Outside Boundary Condition Object
  NoSun,                                  !- Sun Exposure
  NoWind,                                 !- Wind Exposure
  ,                                       !- View Factor to Ground
  ,                                       !- Number of Vertices
  0, 0, 0,                                !- X,Y,Z Vertex 1 {m}
  0, 1.524, 0,                            !- X,Y,Z Vertex 2 {m}
  3.048, 1.524, 0,                        !- X,Y,Z Vertex 3 {m}
  3.048, 0, 0;                            !- X,Y,Z Vertex 4 {m}

OS:Surface,
  {619d39dc-2b49-4dd3-88b8-326dcbef3646}, !- Handle
  Surface 2,                              !- Name
  Wall,                                   !- Surface Type
  {c77e07e9-0fac-450e-904f-34bab38bfef6}, !- Construction Name
  {ad864563-2728-4cb3-b5f4-5f44f69b1cef}, !- Space Name
  Outdoors,                               !- Outside Boundary Condition
  ,                                       !- Outside Boundary Condition Object
  SunExposed,                             !- Sun Exposure
  WindExposed,                            !- Wind Exposure
  ,                                       !- View Factor to Ground
  ,                                       !- Number of Vertices
  0, 1.524, 2.4384,                       !- X,Y,Z Vertex 1 {m}
  0, 1.524, 0,                            !- X,Y,Z Vertex 2 {m}
  0, 0, 0,                                !- X,Y,Z Vertex 3 {m}
  0, 0, 2.4384;                           !- X,Y,Z Vertex 4 {m}

OS:Surface,
  {36160dd7-bcce-4fe9-856c-e7489059d6f6}, !- Handle
  Surface 3,                              !- Name
  Wall,                                   !- Surface Type
  {c77e07e9-0fac-450e-904f-34bab38bfef6}, !- Construction Name
  {ad864563-2728-4cb3-b5f4-5f44f69b1cef}, !- Space Name
  Outdoors,                               !- Outside Boundary Condition
  ,                                       !- Outside Boundary Condition Object
  SunExposed,                             !- Sun Exposure
  WindExposed,                            !- Wind Exposure
  ,                                       !- View Factor to Ground
  ,                                       !- Number of Vertices
  3.048, 1.524, 2.4384,                   !- X,Y,Z Vertex 1 {m}
  3.048, 1.524, 0,                        !- X,Y,Z Vertex 2 {m}
  0, 1.524, 0,                            !- X,Y,Z Vertex 3 {m}
  0, 1.524, 2.4384;                       !- X,Y,Z Vertex 4 {m}

OS:Surface,
  {d63ca03b-f759-4a33-aed6-fd4167ce0681}, !- Handle
  Surface 4,                              !- Name
  Wall,                                   !- Surface Type
  {c77e07e9-0fac-450e-904f-34bab38bfef6}, !- Construction Name
  {ad864563-2728-4cb3-b5f4-5f44f69b1cef}, !- Space Name
  Outdoors,                               !- Outside Boundary Condition
  ,                                       !- Outside Boundary Condition Object
  SunExposed,                             !- Sun Exposure
  WindExposed,                            !- Wind Exposure
  ,                                       !- View Factor to Ground
  ,                                       !- Number of Vertices
  3.048, 0, 2.4384,                       !- X,Y,Z Vertex 1 {m}
  3.048, 0, 0,                            !- X,Y,Z Vertex 2 {m}
  3.048, 1.524, 0,                        !- X,Y,Z Vertex 3 {m}
  3.048, 1.524, 2.4384;                   !- X,Y,Z Vertex 4 {m}

OS:Surface,
  {dd7aa110-30b2-47ed-8d7f-eb7de6aa0ca6}, !- Handle
  Surface 5,                              !- Name
  Wall,                                   !- Surface Type
  {c77e07e9-0fac-450e-904f-34bab38bfef6}, !- Construction Name
  {ad864563-2728-4cb3-b5f4-5f44f69b1cef}, !- Space Name
  Outdoors,                               !- Outside Boundary Condition
  ,                                       !- Outside Boundary Condition Object
  SunExposed,                             !- Sun Exposure
  WindExposed,                            !- Wind Exposure
  ,                                       !- View Factor to Ground
  ,                                       !- Number of Vertices
  3.048, 0, 0,                            !- X,Y,Z Vertex 1 {m}
  3.048, 0, 2.4384,                       !- X,Y,Z Vertex 2 {m}
  1.04865714285714, 0, 2.4384,            !- X,Y,Z Vertex 3 {m}
  1.04865714285714, 0, 0;                 !- X,Y,Z Vertex 4 {m}

OS:Surface,
  {ee93c989-a69c-47a8-8e4a-40edf726a95b}, !- Handle
  Surface 6,                              !- Name
  RoofCeiling,                            !- Surface Type
  {6d6dea1d-cd56-46ca-97ec-efe351a9d1ea}, !- Construction Name
  {ad864563-2728-4cb3-b5f4-5f44f69b1cef}, !- Space Name
  Surface,                                !- Outside Boundary Condition
  {6b8091c8-f885-4418-a883-344f03c1f51e}, !- Outside Boundary Condition Object
  NoSun,                                  !- Sun Exposure
  NoWind,                                 !- Wind Exposure
  ,                                       !- View Factor to Ground
  ,                                       !- Number of Vertices
  3.048, 0, 2.4384,                       !- X,Y,Z Vertex 1 {m}
  3.048, 1.524, 2.4384,                   !- X,Y,Z Vertex 2 {m}
  0, 1.524, 2.4384,                       !- X,Y,Z Vertex 3 {m}
  0, 0, 2.4384;                           !- X,Y,Z Vertex 4 {m}

OS:SpaceType,
  {384719f5-2b2e-4668-9262-30b6f0fed249}, !- Handle
  Space Type 1,                           !- Name
  ,                                       !- Default Construction Set Name
  ,                                       !- Default Schedule Set Name
  ,                                       !- Group Rendering Name
  ,                                       !- Design Specification Outdoor Air Object Name
  ,                                       !- Standards Template
  ,                                       !- Standards Building Type
  living;                                 !- Standards Space Type

OS:Space,
  {7d746d14-1500-430d-9dfa-ecc3ee82e682}, !- Handle
  living space|story 2,                   !- Name
  {384719f5-2b2e-4668-9262-30b6f0fed249}, !- Space Type Name
  ,                                       !- Default Construction Set Name
  ,                                       !- Default Schedule Set Name
  -0,                                     !- Direction of Relative North {deg}
  0,                                      !- X Origin {m}
  0,                                      !- Y Origin {m}
  2.4384,                                 !- Z Origin {m}
  ,                                       !- Building Story Name
  {816a57a2-c661-4890-9c3f-75ecf02656b0}, !- Thermal Zone Name
  ,                                       !- Part of Total Floor Area
  ,                                       !- Design Specification Outdoor Air Object Name
  {fa182864-1064-41cb-a3d3-895a5be56c77}; !- Building Unit Name

OS:Surface,
  {6b8091c8-f885-4418-a883-344f03c1f51e}, !- Handle
  Surface 7,                              !- Name
  Floor,                                  !- Surface Type
  {455e68f1-883d-47d2-9921-ff607e9b1fae}, !- Construction Name
  {7d746d14-1500-430d-9dfa-ecc3ee82e682}, !- Space Name
  Surface,                                !- Outside Boundary Condition
  {ee93c989-a69c-47a8-8e4a-40edf726a95b}, !- Outside Boundary Condition Object
  NoSun,                                  !- Sun Exposure