!- NOTE: Auto-generated from /test/osw_files/SFD_HVACSizing_Load_1story_S_UA_Unvented_NoOverhangs_NoIntShading_NoMechVent.osw

OS:Version,
  {24dfcad2-2c6d-49bf-9141-cb79d43405bf}, !- Handle
  2.8.0;                                  !- Version Identifier

OS:SimulationControl,
  {7da03a64-a60f-4235-bf0d-7589a9907ce1}, !- Handle
  ,                                       !- Do Zone Sizing Calculation
  ,                                       !- Do System Sizing Calculation
  ,                                       !- Do Plant Sizing Calculation
  No;                                     !- Run Simulation for Sizing Periods

OS:Timestep,
  {35b4026e-d3c2-4e59-8396-d1efc241e863}, !- Handle
  6;                                      !- Number of Timesteps per Hour

OS:ShadowCalculation,
  {e7306a81-d8ea-4578-8ab3-cd430d2f95b3}, !- Handle
  20,                                     !- Calculation Frequency
  200;                                    !- Maximum Figures in Shadow Overlap Calculations

OS:SurfaceConvectionAlgorithm:Outside,
  {3fcae79a-41eb-4b81-b5b5-7b79cd45ca8e}, !- Handle
  DOE-2;                                  !- Algorithm

OS:SurfaceConvectionAlgorithm:Inside,
  {b3cc5329-2a06-4fc9-89bf-0da6cc85a535}, !- Handle
  TARP;                                   !- Algorithm

OS:ZoneCapacitanceMultiplier:ResearchSpecial,
  {8984cc95-f3f5-492a-979f-4582799d0c52}, !- Handle
  ,                                       !- Temperature Capacity Multiplier
  15,                                     !- Humidity Capacity Multiplier
  ;                                       !- Carbon Dioxide Capacity Multiplier

OS:RunPeriod,
  {c6734fad-0769-4e9a-87be-378f123835fa}, !- Handle
  Run Period 1,                           !- Name
  1,                                      !- Begin Month
  1,                                      !- Begin Day of Month
  12,                                     !- End Month
  31,                                     !- End Day of Month
  ,                                       !- Use Weather File Holidays and Special Days
  ,                                       !- Use Weather File Daylight Saving Period
  ,                                       !- Apply Weekend Holiday Rule
  ,                                       !- Use Weather File Rain Indicators
  ,                                       !- Use Weather File Snow Indicators
  ;                                       !- Number of Times Runperiod to be Repeated

OS:YearDescription,
  {e4c6378b-02cf-451a-bfec-48436aeb97d6}, !- Handle
  2007,                                   !- Calendar Year
  ,                                       !- Day of Week for Start Day
  ;                                       !- Is Leap Year

OS:WeatherFile,
  {3361dbe4-1836-4f06-ad01-f9f1428a28ba}, !- Handle
  Denver Intl Ap,                         !- City
  CO,                                     !- State Province Region
  USA,                                    !- Country
  TMY3,                                   !- Data Source
  725650,                                 !- WMO Number
  39.83,                                  !- Latitude {deg}
  -104.65,                                !- Longitude {deg}
  -7,                                     !- Time Zone {hr}
  1650,                                   !- Elevation {m}
  file:../weather/USA_CO_Denver.Intl.AP.725650_TMY3.epw, !- Url
  E23378AA;                               !- Checksum

OS:AdditionalProperties,
  {1ce00c90-2ef1-4f12-8463-579f7c1bc18a}, !- Handle
  {3361dbe4-1836-4f06-ad01-f9f1428a28ba}, !- Object Name
  EPWHeaderCity,                          !- Feature Name 1
  String,                                 !- Feature Data Type 1
  Denver Intl Ap,                         !- Feature Value 1
  EPWHeaderState,                         !- Feature Name 2
  String,                                 !- Feature Data Type 2
  CO,                                     !- Feature Value 2
  EPWHeaderCountry,                       !- Feature Name 3
  String,                                 !- Feature Data Type 3
  USA,                                    !- Feature Value 3
  EPWHeaderDataSource,                    !- Feature Name 4
  String,                                 !- Feature Data Type 4
  TMY3,                                   !- Feature Value 4
  EPWHeaderStation,                       !- Feature Name 5
  String,                                 !- Feature Data Type 5
  725650,                                 !- Feature Value 5
  EPWHeaderLatitude,                      !- Feature Name 6
  Double,                                 !- Feature Data Type 6
  39.829999999999998,                     !- Feature Value 6
  EPWHeaderLongitude,                     !- Feature Name 7
  Double,                                 !- Feature Data Type 7
  -104.65000000000001,                    !- Feature Value 7
  EPWHeaderTimezone,                      !- Feature Name 8
  Double,                                 !- Feature Data Type 8
  -7,                                     !- Feature Value 8
  EPWHeaderAltitude,                      !- Feature Name 9
  Double,                                 !- Feature Data Type 9
  5413.3858267716532,                     !- Feature Value 9
  EPWHeaderLocalPressure,                 !- Feature Name 10
  Double,                                 !- Feature Data Type 10
  0.81937567683596546,                    !- Feature Value 10
  EPWHeaderRecordsPerHour,                !- Feature Name 11
  Double,                                 !- Feature Data Type 11
  0,                                      !- Feature Value 11
  EPWDataAnnualAvgDrybulb,                !- Feature Name 12
  Double,                                 !- Feature Data Type 12
  51.575616438356228,                     !- Feature Value 12
  EPWDataAnnualMinDrybulb,                !- Feature Name 13
  Double,                                 !- Feature Data Type 13
  -2.9200000000000017,                    !- Feature Value 13
  EPWDataAnnualMaxDrybulb,                !- Feature Name 14
  Double,                                 !- Feature Data Type 14
  104,                                    !- Feature Value 14
  EPWDataCDD50F,                          !- Feature Name 15
  Double,                                 !- Feature Data Type 15
  3072.2925000000005,                     !- Feature Value 15
  EPWDataCDD65F,                          !- Feature Name 16
  Double,                                 !- Feature Data Type 16
  883.62000000000035,                     !- Feature Value 16
  EPWDataHDD50F,                          !- Feature Name 17
  Double,                                 !- Feature Data Type 17
  2497.1925000000001,                     !- Feature Value 17
  EPWDataHDD65F,                          !- Feature Name 18
  Double,                                 !- Feature Data Type 18
  5783.5200000000013,                     !- Feature Value 18
  EPWDataAnnualAvgWindspeed,              !- Feature Name 19
  Double,                                 !- Feature Data Type 19
  3.9165296803649667,                     !- Feature Value 19
  EPWDataMonthlyAvgDrybulbs,              !- Feature Name 20
  String,                                 !- Feature Data Type 20
  33.4191935483871&#4431.90142857142857&#4443.02620967741937&#4442.48624999999999&#4459.877741935483854&#4473.57574999999997&#4472.07975806451608&#4472.70008064516134&#4466.49200000000006&#4450.079112903225806&#4437.218250000000005&#4434.582177419354835, !- Feature Value 20
  EPWDataGroundMonthlyTemps,              !- Feature Name 21
  String,                                 !- Feature Data Type 21
  44.08306285945173&#4440.89570904991865&#4440.64045432632048&#4442.153016571250646&#4448.225111118704206&#4454.268919273837525&#4459.508577937551024&#4462.82777283423508&#4463.10975667174995&#4460.41014950381947&#4455.304105212311526&#4449.445696474514364, !- Feature Value 21
  EPWDataWSF,                             !- Feature Name 22
  Double,                                 !- Feature Data Type 22
  0.58999999999999997,                    !- Feature Value 22
  EPWDataMonthlyAvgDailyHighDrybulbs,     !- Feature Name 23
  String,                                 !- Feature Data Type 23
  47.41032258064516&#4446.58642857142857&#4455.15032258064517&#4453.708&#4472.80193548387098&#4488.67600000000002&#4486.1858064516129&#4485.87225806451613&#4482.082&#4463.18064516129033&#4448.73400000000001&#4448.87935483870968, !- Feature Value 23
  EPWDataMonthlyAvgDailyLowDrybulbs,      !- Feature Name 24
  String,                                 !- Feature Data Type 24
  19.347741935483874&#4419.856428571428573&#4430.316129032258065&#4431.112&#4447.41612903225806&#4457.901999999999994&#4459.063870967741934&#4460.956774193548384&#4452.352000000000004&#4438.41612903225806&#4427.002000000000002&#4423.02903225806451, !- Feature Value 24
  EPWDesignHeatingDrybulb,                !- Feature Name 25
  Double,                                 !- Feature Data Type 25
  12.02,                                  !- Feature Value 25
  EPWDesignHeatingWindspeed,              !- Feature Name 26
  Double,                                 !- Feature Data Type 26
  2.8062500000000004,                     !- Feature Value 26
  EPWDesignCoolingDrybulb,                !- Feature Name 27
  Double,                                 !- Feature Data Type 27
  91.939999999999998,                     !- Feature Value 27
  EPWDesignCoolingWetbulb,                !- Feature Name 28
  Double,                                 !- Feature Data Type 28
  59.95131430195849,                      !- Feature Value 28
  EPWDesignCoolingHumidityRatio,          !- Feature Name 29
  Double,                                 !- Feature Data Type 29
  0.0059161086834698092,                  !- Feature Value 29
  EPWDesignCoolingWindspeed,              !- Feature Name 30
  Double,                                 !- Feature Data Type 30
  3.7999999999999989,                     !- Feature Value 30
  EPWDesignDailyTemperatureRange,         !- Feature Name 31
  Double,                                 !- Feature Data Type 31
  24.915483870967748,                     !- Feature Value 31
  EPWDesignDehumidDrybulb,                !- Feature Name 32
  Double,                                 !- Feature Data Type 32
  67.996785714285721,                     !- Feature Value 32
  EPWDesignDehumidHumidityRatio,          !- Feature Name 33
  Double,                                 !- Feature Data Type 33
  0.012133744170488724,                   !- Feature Value 33
  EPWDesignCoolingDirectNormal,           !- Feature Name 34
  Double,                                 !- Feature Data Type 34
  985,                                    !- Feature Value 34
  EPWDesignCoolingDiffuseHorizontal,      !- Feature Name 35
  Double,                                 !- Feature Data Type 35
  84;                                     !- Feature Value 35

OS:Site,
  {b865946c-2bfd-4a8a-979d-2d22f3ddd63d}, !- Handle
  Denver Intl Ap_CO_USA,                  !- Name
  39.83,                                  !- Latitude {deg}
  -104.65,                                !- Longitude {deg}
  -7,                                     !- Time Zone {hr}
  1650,                                   !- Elevation {m}
  Suburbs;                                !- Terrain

OS:ClimateZones,
  {8aebeab8-4cf8-48ae-9de4-9601c4411cfc}, !- Handle
  ,                                       !- Active Institution
  ,                                       !- Active Year
  ,                                       !- Climate Zone Institution Name 1
  ,                                       !- Climate Zone Document Name 1
  ,                                       !- Climate Zone Document Year 1
  ,                                       !- Climate Zone Value 1
  Building America,                       !- Climate Zone Institution Name 2
  ,                                       !- Climate Zone Document Name 2
  0,                                      !- Climate Zone Document Year 2
  Cold;                                   !- Climate Zone Value 2

OS:Site:WaterMainsTemperature,
  {bea61250-2a70-4e40-b8f6-38439fde42e9}, !- Handle
  Correlation,                            !- Calculation Method
  ,                                       !- Temperature Schedule Name
  10.8753424657535,                       !- Annual Average Outdoor Air Temperature {C}
  23.1524007936508;                       !- Maximum Difference In Monthly Average Outdoor Air Temperatures {deltaC}

OS:RunPeriodControl:DaylightSavingTime,
  {5ce3c01e-c27c-477a-aeb7-0a7b5ed06b22}, !- Handle
  4/7,                                    !- Start Date
  10/26;                                  !- End Date

OS:Site:GroundTemperature:Deep,
  {c774922b-b7e1-4ce6-963b-746289ac878f}, !- Handle
  10.8753424657535,                       !- January Deep Ground Temperature {C}
  10.8753424657535,                       !- February Deep Ground Temperature {C}
  10.8753424657535,                       !- March Deep Ground Temperature {C}
  10.8753424657535,                       !- April Deep Ground Temperature {C}
  10.8753424657535,                       !- May Deep Ground Temperature {C}
  10.8753424657535,                       !- June Deep Ground Temperature {C}
  10.8753424657535,                       !- July Deep Ground Temperature {C}
  10.8753424657535,                       !- August Deep Ground Temperature {C}
  10.8753424657535,                       !- September Deep Ground Temperature {C}
  10.8753424657535,                       !- October Deep Ground Temperature {C}
  10.8753424657535,                       !- November Deep Ground Temperature {C}
  10.8753424657535;                       !- December Deep Ground Temperature {C}

OS:ThermalZone,
  {2345fcc8-e416-4e97-9fa3-982c34bbab45}, !- Handle
  living zone,                            !- Name
  ,                                       !- Multiplier
  ,                                       !- Ceiling Height {m}
  ,                                       !- Volume {m3}
  ,                                       !- Floor Area {m2}
  ,                                       !- Zone Inside Convection Algorithm
  ,                                       !- Zone Outside Convection Algorithm
  ,                                       !- Zone Conditioning Equipment List Name
  {236e6ffc-8fd7-4f61-9629-12b093b9e520}, !- Zone Air Inlet Port List
  {bfb55ea4-b8bc-4205-afd2-f8d2f5e6d58f}, !- Zone Air Exhaust Port List
  {67f5b298-9444-4496-bfcb-e1f8774958c8}, !- Zone Air Node Name
  {3cbf947d-a19b-458a-b925-f0c895966103}, !- Zone Return Air Port List
  ,                                       !- Primary Daylighting Control Name
  ,                                       !- Fraction of Zone Controlled by Primary Daylighting Control
  ,                                       !- Secondary Daylighting Control Name
  ,                                       !- Fraction of Zone Controlled by Secondary Daylighting Control
  ,                                       !- Illuminance Map Name
  ,                                       !- Group Rendering Name
  ,                                       !- Thermostat Name
  No;                                     !- Use Ideal Air Loads

OS:Node,
  {58878195-b553-4d80-a912-a7cab34c278c}, !- Handle
  Node 1,                                 !- Name
  {67f5b298-9444-4496-bfcb-e1f8774958c8}, !- Inlet Port
  ;                                       !- Outlet Port

OS:Connection,
  {67f5b298-9444-4496-bfcb-e1f8774958c8}, !- Handle
  {8cb6e302-6f85-4baa-a8e7-2c6e099cb3cf}, !- Name
  {2345fcc8-e416-4e97-9fa3-982c34bbab45}, !- Source Object
  11,                                     !- Outlet Port
  {58878195-b553-4d80-a912-a7cab34c278c}, !- Target Object
  2;                                      !- Inlet Port

OS:PortList,
  {236e6ffc-8fd7-4f61-9629-12b093b9e520}, !- Handle
  {ec13d7c5-f773-4ba7-84f9-91b4f130234e}, !- Name
  {2345fcc8-e416-4e97-9fa3-982c34bbab45}; !- HVAC Component

OS:PortList,
  {bfb55ea4-b8bc-4205-afd2-f8d2f5e6d58f}, !- Handle
  {f2c07c3f-1117-4afa-84fd-929e8df82797}, !- Name
  {2345fcc8-e416-4e97-9fa3-982c34bbab45}; !- HVAC Component

OS:PortList,
  {3cbf947d-a19b-458a-b925-f0c895966103}, !- Handle
  {0b5622d2-2342-4ff1-be2f-d39ebc42f8a2}, !- Name
  {2345fcc8-e416-4e97-9fa3-982c34bbab45}; !- HVAC Component

OS:Sizing:Zone,
  {a48626a5-36ff-49a5-aec5-f963dd578c2b}, !- Handle
  {2345fcc8-e416-4e97-9fa3-982c34bbab45}, !- Zone or ZoneList Name
  SupplyAirTemperature,                   !- Zone Cooling Design Supply Air Temperature Input Method
  14,                                     !- Zone Cooling Design Supply Air Temperature {C}
  11.11,                                  !- Zone Cooling Design Supply Air Temperature Difference {deltaC}
  SupplyAirTemperature,                   !- Zone Heating Design Supply Air Temperature Input Method
  40,                                     !- Zone Heating Design Supply Air Temperature {C}
  11.11,                                  !- Zone Heating Design Supply Air Temperature Difference {deltaC}
  0.0085,                                 !- Zone Cooling Design Supply Air Humidity Ratio {kg-H2O/kg-air}
  0.008,                                  !- Zone Heating Design Supply Air Humidity Ratio {kg-H2O/kg-air}
  ,                                       !- Zone Heating Sizing Factor
  ,                                       !- Zone Cooling Sizing Factor
  DesignDay,                              !- Cooling Design Air Flow Method
  ,                                       !- Cooling Design Air Flow Rate {m3/s}
  ,                                       !- Cooling Minimum Air Flow per Zone Floor Area {m3/s-m2}
  ,                                       !- Cooling Minimum Air Flow {m3/s}
  ,                                       !- Cooling Minimum Air Flow Fraction
  DesignDay,                              !- Heating Design Air Flow Method
  ,                                       !- Heating Design Air Flow Rate {m3/s}
  ,                                       !- Heating Maximum Air Flow per Zone Floor Area {m3/s-m2}
  ,                                       !- Heating Maximum Air Flow {m3/s}
  ,                                       !- Heating Maximum Air Flow Fraction
  ,                                       !- Design Zone Air Distribution Effectiveness in Cooling Mode
  ,                                       !- Design Zone Air Distribution Effectiveness in Heating Mode
  No,                                     !- Account for Dedicated Outdoor Air System
  NeutralSupplyAir,                       !- Dedicated Outdoor Air System Control Strategy
  autosize,                               !- Dedicated Outdoor Air Low Setpoint Temperature for Design {C}
  autosize;                               !- Dedicated Outdoor Air High Setpoint Temperature for Design {C}

OS:ZoneHVAC:EquipmentList,
  {f3298e1b-b579-4450-95cf-3514721d875c}, !- Handle
  Zone HVAC Equipment List 1,             !- Name
  {2345fcc8-e416-4e97-9fa3-982c34bbab45}; !- Thermal Zone

OS:Space,
  {b88bd68f-2e0d-4652-9587-a3b85b793499}, !- Handle
  living space,                           !- Name
  {82ba2e29-1357-40c4-9d26-43b6584acf49}, !- Space Type Name
  ,                                       !- Default Construction Set Name
  ,                                       !- Default Schedule Set Name
  -0,                                     !- Direction of Relative North {deg}
  0,                                      !- X Origin {m}
  0,                                      !- Y Origin {m}
  0,                                      !- Z Origin {m}
  ,                                       !- Building Story Name
  {2345fcc8-e416-4e97-9fa3-982c34bbab45}, !- Thermal Zone Name
  ,                                       !- Part of Total Floor Area
  ,                                       !- Design Specification Outdoor Air Object Name
  {02448b30-3deb-4feb-aa37-5484bc495b47}; !- Building Unit Name

OS:Surface,
  {81b7895c-8a87-4b15-b5b2-c0866716a85e}, !- Handle
  Surface 1,                              !- Name
  Floor,                                  !- Surface Type
  {6c948972-4f39-4f34-bd26-3f1f1cd99806}, !- Construction Name
  {b88bd68f-2e0d-4652-9587-a3b85b793499}, !- Space Name
  Foundation,                             !- Outside Boundary Condition
  {c0fbd854-9a36-4ee5-ad6d-427c00e8f50d}, !- Outside Boundary Condition Object
  NoSun,                                  !- Sun Exposure
  NoWind,                                 !- Wind Exposure
  ,                                       !- View Factor to Ground
  ,                                       !- Number of Vertices
  0, 0, 0,                                !- X,Y,Z Vertex 1 {m}
  0, 10.7471427258245, 0,                 !- X,Y,Z Vertex 2 {m}
  17.2888817744574, 10.7471427258245, 0,  !- X,Y,Z Vertex 3 {m}
  17.2888817744574, 0, 0;                 !- X,Y,Z Vertex 4 {m}

OS:Surface,
  {156dcd78-aef3-46d4-9f1e-397097975d70}, !- Handle
  Surface 2,                              !- Name
  Wall,                                   !- Surface Type
  {6ba0af83-6115-469f-b2d3-3cad51ba8934}, !- Construction Name
  {b88bd68f-2e0d-4652-9587-a3b85b793499}, !- Space Name
  Outdoors,                               !- Outside Boundary Condition
  ,                                       !- Outside Boundary Condition Object
  SunExposed,                             !- Sun Exposure
  WindExposed,                            !- Wind Exposure
  ,                                       !- View Factor to Ground
  ,                                       !- Number of Vertices
  0, 10.7471427258245, 2.4384,            !- X,Y,Z Vertex 1 {m}
  0, 10.7471427258245, 0,                 !- X,Y,Z Vertex 2 {m}
  0, 0, 0,                                !- X,Y,Z Vertex 3 {m}
  0, 0, 2.4384;                           !- X,Y,Z Vertex 4 {m}

OS:Surface,
  {8adbd51a-4b39-4645-b60d-28742b26f2c5}, !- Handle
  Surface 3,                              !- Name
  Wall,                                   !- Surface Type
  {6ba0af83-6115-469f-b2d3-3cad51ba8934}, !- Construction Name
  {b88bd68f-2e0d-4652-9587-a3b85b793499}, !- Space Name
  Outdoors,                               !- Outside Boundary Condition
  ,                                       !- Outside Boundary Condition Object
  SunExposed,                             !- Sun Exposure
  WindExposed,                            !- Wind Exposure
  ,                                       !- View Factor to Ground
  ,                                       !- Number of Vertices
  17.2888817744574, 10.7471427258245, 2.4384, !- X,Y,Z Vertex 1 {m}
  17.2888817744574, 10.7471427258245, 0,  !- X,Y,Z Vertex 2 {m}
  0, 10.7471427258245, 0,                 !- X,Y,Z Vertex 3 {m}
  0, 10.7471427258245, 2.4384;            !- X,Y,Z Vertex 4 {m}

OS:Surface,
  {86eecca2-2638-49e1-a366-a1e8fa80e555}, !- Handle
  Surface 4,                              !- Name
  Wall,                                   !- Surface Type
  {6ba0af83-6115-469f-b2d3-3cad51ba8934}, !- Construction Name
  {b88bd68f-2e0d-4652-9587-a3b85b793499}, !- Space Name
  Outdoors,                               !- Outside Boundary Condition
  ,                                       !- Outside Boundary Condition Object
  SunExposed,                             !- Sun Exposure
  WindExposed,                            !- Wind Exposure
  ,                                       !- View Factor to Ground
  ,                                       !- Number of Vertices
  17.2888817744574, 0, 2.4384,            !- X,Y,Z Vertex 1 {m}
  17.2888817744574, 0, 0,                 !- X,Y,Z Vertex 2 {m}
  17.2888817744574, 10.7471427258245, 0,  !- X,Y,Z Vertex 3 {m}
  17.2888817744574, 10.7471427258245, 2.4384; !- X,Y,Z Vertex 4 {m}

OS:Surface,
  {6ec8b2c7-f925-41da-acb6-cc5a5869375e}, !- Handle
  Surface 5,                              !- Name
  Wall,                                   !- Surface Type
  {6ba0af83-6115-469f-b2d3-3cad51ba8934}, !- Construction Name
  {b88bd68f-2e0d-4652-9587-a3b85b793499}, !- Space Name
  Outdoors,                               !- Outside Boundary Condition
  ,                                       !- Outside Boundary Condition Object
  SunExposed,                             !- Sun Exposure
  WindExposed,                            !- Wind Exposure
  ,                                       !- View Factor to Ground
  ,                                       !- Number of Vertices
  17.2888817744574, 0, 0,                 !- X,Y,Z Vertex 1 {m}
  17.2888817744574, 0, 2.4384,            !- X,Y,Z Vertex 2 {m}
  1.04865714285714, 0, 2.4384,            !- X,Y,Z Vertex 3 {m}
  1.04865714285714, 0, 0;                 !- X,Y,Z Vertex 4 {m}

OS:Surface,
  {797bd275-6d96-4e39-920c-7bf29f21b563}, !- Handle
  Surface 6,                              !- Name
  RoofCeiling,                            !- Surface Type
  {85ced8f8-6e8a-4e4b-8ffa-099b1b6d3f69}, !- Construction Name
  {b88bd68f-2e0d-4652-9587-a3b85b793499}, !- Space Name
  Surface,                                !- Outside Boundary Condition
  {a929ebf5-214e-49fd-9ae8-42b5809d9f40}, !- Outside Boundary Condition Object
  NoSun,                                  !- Sun Exposure
  NoWind,                                 !- Wind Exposure
  ,                                       !- View Factor to Ground
  ,                                       !- Number of Vertices
  17.2888817744574, 0, 2.4384,            !- X,Y,Z Vertex 1 {m}
  17.2888817744574, 10.7471427258245, 2.4384, !- X,Y,Z Vertex 2 {m}
  0, 10.7471427258245, 2.4384,            !- X,Y,Z Vertex 3 {m}
  0, 0, 2.4384;                           !- X,Y,Z Vertex 4 {m}

OS:SpaceType,
  {82ba2e29-1357-40c4-9d26-43b6584acf49}, !- Handle
  Space Type 1,                           !- Name
  ,                                       !- Default Construction Set Name
  ,                                       !- Default Schedule Set Name
  ,                                       !- Group Rendering Name
  ,                                       !- Design Specification Outdoor Air Object Name
  ,                                       !- Standards Template
  ,                                       !- Standards Building Type
  living;                                 !- Standards Space Type

OS:Surface,
  {a929ebf5-214e-49fd-9ae8-42b5809d9f40}, !- Handle
  Surface 7,                              !- Name
  Floor,                                  !- Surface Type
  {12cee858-7254-42de-9eeb-c18d8ca87646}, !- Construction Name
  {9f701b12-7b4f-4394-b96b-9b9017bf6394}, !- Space Name
  Surface,                                !- Outside Boundary Condition
  {797bd275-6d96-4e39-920c-7bf29f21b563}, !- Outside Boundary Condition Object
  NoSun,                                  !- Sun Exposure
  NoWind,                                 !- Wind Exposure
  ,                                       !- View Factor to Ground
  ,                                       !- Number of Vertices
  0, 10.7471427258245, 0,                 !- X,Y,Z Vertex 1 {m}
  17.2888817744574, 10.7471427258245, 0,  !- X,Y,Z Vertex 2 {m}
  17.2888817744574, 0, 0,                 !- X,Y,Z Vertex 3 {m}
  0, 0, 0;                                !- X,Y,Z Vertex 4 {m}

OS:Surface,
  {f4c4a97e-8f5e-4b8b-8b5e-0970f0c12804}, !- Handle
  Surface 8,                              !- Name
  RoofCeiling,                            !- Surface Type
  {6ce1cd7b-ad04-4258-8ec2-aea9ea9bf3db}, !- Construction Name
  {9f701b12-7b4f-4394-b96b-9b9017bf6394}, !- Space Name
  Outdoors,                               !- Outside Boundary Condition
  ,                                       !- Outside Boundary Condition Object
  SunExposed,                             !- Sun Exposure
  WindExposed,                            !- Wind Exposure
  ,                                       !- View Factor to Ground
  ,                                       !- Number of Vertices
  17.2888817744574, 5.37357136291227, 2.68678568145614, !- X,Y,Z Vertex 1 {m}
  0, 5.37357136291227, 2.68678568145614,  !- X,Y,Z Vertex 2 {m}
  0, 0, 0,                                !- X,Y,Z Vertex 3 {m}
  17.2888817744574, 0, 0;                 !- X,Y,Z Vertex 4 {m}

OS:Surface,
  {16fb3fd6-3895-43f3-9bd8-150922e332a8}, !- Handle
  Surface 9,                              !- Name
  RoofCeiling,                            !- Surface Type
  {6ce1cd7b-ad04-4258-8ec2-aea9ea9bf3db}, !- Construction Name
  {9f701b12-7b4f-4394-b96b-9b9017bf6394}, !- Space Name
  Outdoors,                               !- Outside Boundary Condition
  ,                                       !- Outside Boundary Condition Object
  SunExposed,                             !- Sun Exposure
  WindExposed,                            !- Wind Exposure
  ,                                       !- View Factor to Ground
  ,                                       !- Number of Vertices
  0, 5.37357136291227, 2.68678568145614,  !- X,Y,Z Vertex 1 {m}
  17.2888817744574, 5.37357136291227, 2.68678568145614, !- X,Y,Z Vertex 2 {m}
  17.2888817744574, 10.7471427258245, 0,  !- X,Y,Z Vertex 3 {m}
  0, 10.7471427258245, 0;                 !- X,Y,Z Vertex 4 {m}

OS:Surface,
  {d33c61a1-ff17-420d-b219-1cc682cd451c}, !- Handle
  Surface 10,                             !- Name
  Wall,                                   !- Surface Type
  {74c8ac0f-9fcf-402d-9800-578089d36159}, !- Construction Name
  {9f701b12-7b4f-4394-b96b-9b9017bf6394}, !- Space Name
  Outdoors,                               !- Outside Boundary Condition
  ,                                       !- Outside Boundary Condition Object
  SunExposed,                             !- Sun Exposure
  WindExposed,                            !- Wind Exposure
  ,                                       !- View Factor to Ground
  ,                                       !- Number of Vertices