!- NOTE: Auto-generated from /test/osw_files/SFD_HVACSizing_Load_1story_S_UA_Unvented_NoOverhangs_NoIntShading_SupplyMechVent.osw

OS:Version,
  {5d8cdb30-510d-416c-a0fc-ef914c04d709}, !- Handle
  2.8.0;                                  !- Version Identifier

OS:SimulationControl,
  {81f2c995-820b-4d31-8bfd-0ddd652057b5}, !- Handle
  ,                                       !- Do Zone Sizing Calculation
  ,                                       !- Do System Sizing Calculation
  ,                                       !- Do Plant Sizing Calculation
  No;                                     !- Run Simulation for Sizing Periods

OS:Timestep,
  {36b4335f-fb1b-4c65-9971-02f2ef926526}, !- Handle
  6;                                      !- Number of Timesteps per Hour

OS:ShadowCalculation,
  {e4ccff65-1365-45ca-ad00-2d6567dfb8f1}, !- Handle
  20,                                     !- Calculation Frequency
  200;                                    !- Maximum Figures in Shadow Overlap Calculations

OS:SurfaceConvectionAlgorithm:Outside,
  {a4092bc9-2bff-4117-b50e-8d3739b7cb0e}, !- Handle
  DOE-2;                                  !- Algorithm

OS:SurfaceConvectionAlgorithm:Inside,
  {df50961a-8578-4df8-9313-4d88133e014e}, !- Handle
  TARP;                                   !- Algorithm

OS:ZoneCapacitanceMultiplier:ResearchSpecial,
  {6f695d4e-a213-46b8-9d65-f272493ef372}, !- Handle
  ,                                       !- Temperature Capacity Multiplier
  15,                                     !- Humidity Capacity Multiplier
  ;                                       !- Carbon Dioxide Capacity Multiplier

OS:RunPeriod,
  {0b58e8e5-15e8-4a36-aee0-887112e0cc5c}, !- Handle
  Run Period 1,                           !- Name
  1,                                      !- Begin Month
  1,                                      !- Begin Day of Month
  12,                                     !- End Month
  31,                                     !- End Day of Month
  ,                                       !- Use Weather File Holidays and Special Days
  ,                                       !- Use Weather File Daylight Saving Period
  ,                                       !- Apply Weekend Holiday Rule
  ,                                       !- Use Weather File Rain Indicators
  ,                                       !- Use Weather File Snow Indicators
  ;                                       !- Number of Times Runperiod to be Repeated

OS:YearDescription,
  {ffbf9802-db95-4c65-b030-d64fc68c444c}, !- Handle
  2007,                                   !- Calendar Year
  ,                                       !- Day of Week for Start Day
  ;                                       !- Is Leap Year

OS:WeatherFile,
  {f1d14086-5f7f-4cd4-99ee-9c06a1c0e7af}, !- Handle
  Denver Intl Ap,                         !- City
  CO,                                     !- State Province Region
  USA,                                    !- Country
  TMY3,                                   !- Data Source
  725650,                                 !- WMO Number
  39.83,                                  !- Latitude {deg}
  -104.65,                                !- Longitude {deg}
  -7,                                     !- Time Zone {hr}
  1650,                                   !- Elevation {m}
  file:../weather/USA_CO_Denver.Intl.AP.725650_TMY3.epw, !- Url
  E23378AA;                               !- Checksum

OS:AdditionalProperties,
  {6c54d00b-399b-4311-843b-6a2fe2aacace}, !- Handle
  {f1d14086-5f7f-4cd4-99ee-9c06a1c0e7af}, !- Object Name
  EPWHeaderCity,                          !- Feature Name 1
  String,                                 !- Feature Data Type 1
  Denver Intl Ap,                         !- Feature Value 1
  EPWHeaderState,                         !- Feature Name 2
  String,                                 !- Feature Data Type 2
  CO,                                     !- Feature Value 2
  EPWHeaderCountry,                       !- Feature Name 3
  String,                                 !- Feature Data Type 3
  USA,                                    !- Feature Value 3
  EPWHeaderDataSource,                    !- Feature Name 4
  String,                                 !- Feature Data Type 4
  TMY3,                                   !- Feature Value 4
  EPWHeaderStation,                       !- Feature Name 5
  String,                                 !- Feature Data Type 5
  725650,                                 !- Feature Value 5
  EPWHeaderLatitude,                      !- Feature Name 6
  Double,                                 !- Feature Data Type 6
  39.829999999999998,                     !- Feature Value 6
  EPWHeaderLongitude,                     !- Feature Name 7
  Double,                                 !- Feature Data Type 7
  -104.65000000000001,                    !- Feature Value 7
  EPWHeaderTimezone,                      !- Feature Name 8
  Double,                                 !- Feature Data Type 8
  -7,                                     !- Feature Value 8
  EPWHeaderAltitude,                      !- Feature Name 9
  Double,                                 !- Feature Data Type 9
  5413.3858267716532,                     !- Feature Value 9
  EPWHeaderLocalPressure,                 !- Feature Name 10
  Double,                                 !- Feature Data Type 10
  0.81937567683596546,                    !- Feature Value 10
  EPWHeaderRecordsPerHour,                !- Feature Name 11
  Double,                                 !- Feature Data Type 11
  0,                                      !- Feature Value 11
  EPWDataAnnualAvgDrybulb,                !- Feature Name 12
  Double,                                 !- Feature Data Type 12
  51.575616438356228,                     !- Feature Value 12
  EPWDataAnnualMinDrybulb,                !- Feature Name 13
  Double,                                 !- Feature Data Type 13
  -2.9200000000000017,                    !- Feature Value 13
  EPWDataAnnualMaxDrybulb,                !- Feature Name 14
  Double,                                 !- Feature Data Type 14
  104,                                    !- Feature Value 14
  EPWDataCDD50F,                          !- Feature Name 15
  Double,                                 !- Feature Data Type 15
  3072.2925000000005,                     !- Feature Value 15
  EPWDataCDD65F,                          !- Feature Name 16
  Double,                                 !- Feature Data Type 16
  883.62000000000035,                     !- Feature Value 16
  EPWDataHDD50F,                          !- Feature Name 17
  Double,                                 !- Feature Data Type 17
  2497.1925000000001,                     !- Feature Value 17
  EPWDataHDD65F,                          !- Feature Name 18
  Double,                                 !- Feature Data Type 18
  5783.5200000000013,                     !- Feature Value 18
  EPWDataAnnualAvgWindspeed,              !- Feature Name 19
  Double,                                 !- Feature Data Type 19
  3.9165296803649667,                     !- Feature Value 19
  EPWDataMonthlyAvgDrybulbs,              !- Feature Name 20
  String,                                 !- Feature Data Type 20
  33.4191935483871&#4431.90142857142857&#4443.02620967741937&#4442.48624999999999&#4459.877741935483854&#4473.57574999999997&#4472.07975806451608&#4472.70008064516134&#4466.49200000000006&#4450.079112903225806&#4437.218250000000005&#4434.582177419354835, !- Feature Value 20
  EPWDataGroundMonthlyTemps,              !- Feature Name 21
  String,                                 !- Feature Data Type 21
  44.08306285945173&#4440.89570904991865&#4440.64045432632048&#4442.153016571250646&#4448.225111118704206&#4454.268919273837525&#4459.508577937551024&#4462.82777283423508&#4463.10975667174995&#4460.41014950381947&#4455.304105212311526&#4449.445696474514364, !- Feature Value 21
  EPWDataWSF,                             !- Feature Name 22
  Double,                                 !- Feature Data Type 22
  0.58999999999999997,                    !- Feature Value 22
  EPWDataMonthlyAvgDailyHighDrybulbs,     !- Feature Name 23
  String,                                 !- Feature Data Type 23
  47.41032258064516&#4446.58642857142857&#4455.15032258064517&#4453.708&#4472.80193548387098&#4488.67600000000002&#4486.1858064516129&#4485.87225806451613&#4482.082&#4463.18064516129033&#4448.73400000000001&#4448.87935483870968, !- Feature Value 23
  EPWDataMonthlyAvgDailyLowDrybulbs,      !- Feature Name 24
  String,                                 !- Feature Data Type 24
  19.347741935483874&#4419.856428571428573&#4430.316129032258065&#4431.112&#4447.41612903225806&#4457.901999999999994&#4459.063870967741934&#4460.956774193548384&#4452.352000000000004&#4438.41612903225806&#4427.002000000000002&#4423.02903225806451, !- Feature Value 24
  EPWDesignHeatingDrybulb,                !- Feature Name 25
  Double,                                 !- Feature Data Type 25
  12.02,                                  !- Feature Value 25
  EPWDesignHeatingWindspeed,              !- Feature Name 26
  Double,                                 !- Feature Data Type 26
  2.8062500000000004,                     !- Feature Value 26
  EPWDesignCoolingDrybulb,                !- Feature Name 27
  Double,                                 !- Feature Data Type 27
  91.939999999999998,                     !- Feature Value 27
  EPWDesignCoolingWetbulb,                !- Feature Name 28
  Double,                                 !- Feature Data Type 28
  59.95131430195849,                      !- Feature Value 28
  EPWDesignCoolingHumidityRatio,          !- Feature Name 29
  Double,                                 !- Feature Data Type 29
  0.0059161086834698092,                  !- Feature Value 29
  EPWDesignCoolingWindspeed,              !- Feature Name 30
  Double,                                 !- Feature Data Type 30
  3.7999999999999989,                     !- Feature Value 30
  EPWDesignDailyTemperatureRange,         !- Feature Name 31
  Double,                                 !- Feature Data Type 31
  24.915483870967748,                     !- Feature Value 31
  EPWDesignDehumidDrybulb,                !- Feature Name 32
  Double,                                 !- Feature Data Type 32
  67.996785714285721,                     !- Feature Value 32
  EPWDesignDehumidHumidityRatio,          !- Feature Name 33
  Double,                                 !- Feature Data Type 33
  0.012133744170488724,                   !- Feature Value 33
  EPWDesignCoolingDirectNormal,           !- Feature Name 34
  Double,                                 !- Feature Data Type 34
  985,                                    !- Feature Value 34
  EPWDesignCoolingDiffuseHorizontal,      !- Feature Name 35
  Double,                                 !- Feature Data Type 35
  84;                                     !- Feature Value 35

OS:Site,
  {a29aaae1-b907-46a9-802e-27135573a9a6}, !- Handle
  Denver Intl Ap_CO_USA,                  !- Name
  39.83,                                  !- Latitude {deg}
  -104.65,                                !- Longitude {deg}
  -7,                                     !- Time Zone {hr}
  1650,                                   !- Elevation {m}
  Suburbs;                                !- Terrain

OS:ClimateZones,
  {8f8e60ea-aea8-484b-ac67-18f12da332a4}, !- Handle
  ,                                       !- Active Institution
  ,                                       !- Active Year
  ,                                       !- Climate Zone Institution Name 1
  ,                                       !- Climate Zone Document Name 1
  ,                                       !- Climate Zone Document Year 1
  ,                                       !- Climate Zone Value 1
  Building America,                       !- Climate Zone Institution Name 2
  ,                                       !- Climate Zone Document Name 2
  0,                                      !- Climate Zone Document Year 2
  Cold;                                   !- Climate Zone Value 2

OS:Site:WaterMainsTemperature,
  {3b215993-cdfb-4f15-b167-f584e78e094d}, !- Handle
  Correlation,                            !- Calculation Method
  ,                                       !- Temperature Schedule Name
  10.8753424657535,                       !- Annual Average Outdoor Air Temperature {C}
  23.1524007936508;                       !- Maximum Difference In Monthly Average Outdoor Air Temperatures {deltaC}

OS:RunPeriodControl:DaylightSavingTime,
  {756ef916-291a-4af0-958e-a20a0452ebff}, !- Handle
  4/7,                                    !- Start Date
  10/26;                                  !- End Date

OS:Site:GroundTemperature:Deep,
  {a3e8a8e7-95be-488b-ab5a-62181088753f}, !- Handle
  10.8753424657535,                       !- January Deep Ground Temperature {C}
  10.8753424657535,                       !- February Deep Ground Temperature {C}
  10.8753424657535,                       !- March Deep Ground Temperature {C}
  10.8753424657535,                       !- April Deep Ground Temperature {C}
  10.8753424657535,                       !- May Deep Ground Temperature {C}
  10.8753424657535,                       !- June Deep Ground Temperature {C}
  10.8753424657535,                       !- July Deep Ground Temperature {C}
  10.8753424657535,                       !- August Deep Ground Temperature {C}
  10.8753424657535,                       !- September Deep Ground Temperature {C}
  10.8753424657535,                       !- October Deep Ground Temperature {C}
  10.8753424657535,                       !- November Deep Ground Temperature {C}
  10.8753424657535;                       !- December Deep Ground Temperature {C}

OS:ThermalZone,
  {f4391aed-558d-4aa2-a221-fd20487a80b2}, !- Handle
  living zone,                            !- Name
  ,                                       !- Multiplier
  ,                                       !- Ceiling Height {m}
  ,                                       !- Volume {m3}
  ,                                       !- Floor Area {m2}
  ,                                       !- Zone Inside Convection Algorithm
  ,                                       !- Zone Outside Convection Algorithm
  ,                                       !- Zone Conditioning Equipment List Name
  {036ae273-06a7-4e47-977f-0232f8ca4344}, !- Zone Air Inlet Port List
  {ca5fa43b-ebf3-41d6-99a1-cff5ac4a28c2}, !- Zone Air Exhaust Port List
  {55271240-814a-45f6-aa0d-ac9ea2b76c75}, !- Zone Air Node Name
  {b47ddae0-5e13-47b7-8081-215645980638}, !- Zone Return Air Port List
  ,                                       !- Primary Daylighting Control Name
  ,                                       !- Fraction of Zone Controlled by Primary Daylighting Control
  ,                                       !- Secondary Daylighting Control Name
  ,                                       !- Fraction of Zone Controlled by Secondary Daylighting Control
  ,                                       !- Illuminance Map Name
  ,                                       !- Group Rendering Name
  ,                                       !- Thermostat Name
  No;                                     !- Use Ideal Air Loads

OS:Node,
  {aa5e7d8a-eaac-4afe-96e0-83b6c6a6e1ec}, !- Handle
  Node 1,                                 !- Name
  {55271240-814a-45f6-aa0d-ac9ea2b76c75}, !- Inlet Port
  ;                                       !- Outlet Port

OS:Connection,
  {55271240-814a-45f6-aa0d-ac9ea2b76c75}, !- Handle
  {145b3592-1746-4230-b1af-ec010f5488cd}, !- Name
  {f4391aed-558d-4aa2-a221-fd20487a80b2}, !- Source Object
  11,                                     !- Outlet Port
  {aa5e7d8a-eaac-4afe-96e0-83b6c6a6e1ec}, !- Target Object
  2;                                      !- Inlet Port

OS:PortList,
  {036ae273-06a7-4e47-977f-0232f8ca4344}, !- Handle
  {1d62cb1e-7979-4779-9f62-eefbfdfe9da5}, !- Name
  {f4391aed-558d-4aa2-a221-fd20487a80b2}; !- HVAC Component

OS:PortList,
  {ca5fa43b-ebf3-41d6-99a1-cff5ac4a28c2}, !- Handle
  {69143726-94a9-4b7d-9412-6d1390e6ed6c}, !- Name
  {f4391aed-558d-4aa2-a221-fd20487a80b2}; !- HVAC Component

OS:PortList,
  {b47ddae0-5e13-47b7-8081-215645980638}, !- Handle
  {61b60343-e775-4661-841e-eb10caa917ac}, !- Name
  {f4391aed-558d-4aa2-a221-fd20487a80b2}; !- HVAC Component

OS:Sizing:Zone,
  {213140ed-ed18-4621-af43-a2c6333f65dd}, !- Handle
  {f4391aed-558d-4aa2-a221-fd20487a80b2}, !- Zone or ZoneList Name
  SupplyAirTemperature,                   !- Zone Cooling Design Supply Air Temperature Input Method
  14,                                     !- Zone Cooling Design Supply Air Temperature {C}
  11.11,                                  !- Zone Cooling Design Supply Air Temperature Difference {deltaC}
  SupplyAirTemperature,                   !- Zone Heating Design Supply Air Temperature Input Method
  40,                                     !- Zone Heating Design Supply Air Temperature {C}
  11.11,                                  !- Zone Heating Design Supply Air Temperature Difference {deltaC}
  0.0085,                                 !- Zone Cooling Design Supply Air Humidity Ratio {kg-H2O/kg-air}
  0.008,                                  !- Zone Heating Design Supply Air Humidity Ratio {kg-H2O/kg-air}
  ,                                       !- Zone Heating Sizing Factor
  ,                                       !- Zone Cooling Sizing Factor
  DesignDay,                              !- Cooling Design Air Flow Method
  ,                                       !- Cooling Design Air Flow Rate {m3/s}
  ,                                       !- Cooling Minimum Air Flow per Zone Floor Area {m3/s-m2}
  ,                                       !- Cooling Minimum Air Flow {m3/s}
  ,                                       !- Cooling Minimum Air Flow Fraction
  DesignDay,                              !- Heating Design Air Flow Method
  ,                                       !- Heating Design Air Flow Rate {m3/s}
  ,                                       !- Heating Maximum Air Flow per Zone Floor Area {m3/s-m2}
  ,                                       !- Heating Maximum Air Flow {m3/s}
  ,                                       !- Heating Maximum Air Flow Fraction
  ,                                       !- Design Zone Air Distribution Effectiveness in Cooling Mode
  ,                                       !- Design Zone Air Distribution Effectiveness in Heating Mode
  No,                                     !- Account for Dedicated Outdoor Air System
  NeutralSupplyAir,                       !- Dedicated Outdoor Air System Control Strategy
  autosize,                               !- Dedicated Outdoor Air Low Setpoint Temperature for Design {C}
  autosize;                               !- Dedicated Outdoor Air High Setpoint Temperature for Design {C}

OS:ZoneHVAC:EquipmentList,
  {46e22c0b-9f03-4ed4-94da-6c1bc7f41704}, !- Handle
  Zone HVAC Equipment List 1,             !- Name
  {f4391aed-558d-4aa2-a221-fd20487a80b2}; !- Thermal Zone

OS:Space,
  {9150b9da-f6ee-42f8-bf03-f2f6e0fafcdc}, !- Handle
  living space,                           !- Name
  {65af4f4b-edd6-4e83-bb03-79ca89d1229d}, !- Space Type Name
  ,                                       !- Default Construction Set Name
  ,                                       !- Default Schedule Set Name
  -0,                                     !- Direction of Relative North {deg}
  0,                                      !- X Origin {m}
  0,                                      !- Y Origin {m}
  0,                                      !- Z Origin {m}
  ,                                       !- Building Story Name
  {f4391aed-558d-4aa2-a221-fd20487a80b2}, !- Thermal Zone Name
  ,                                       !- Part of Total Floor Area
  ,                                       !- Design Specification Outdoor Air Object Name
  {861be5ac-e707-485f-aa91-033f09c02d4f}; !- Building Unit Name

OS:Surface,
  {0e87c9ab-6743-4fab-afb9-97b9ac726c22}, !- Handle
  Surface 1,                              !- Name
  Floor,                                  !- Surface Type
  {0b10b1ea-ea59-4a27-9765-e11ea9b3f354}, !- Construction Name
  {9150b9da-f6ee-42f8-bf03-f2f6e0fafcdc}, !- Space Name
  Foundation,                             !- Outside Boundary Condition
  {16c79f7e-af01-4eb3-b298-fe9540069c36}, !- Outside Boundary Condition Object
  NoSun,                                  !- Sun Exposure
  NoWind,                                 !- Wind Exposure
  ,                                       !- View Factor to Ground
  ,                                       !- Number of Vertices
  0, 0, 0,                                !- X,Y,Z Vertex 1 {m}
  0, 10.7471427258245, 0,                 !- X,Y,Z Vertex 2 {m}
  17.2888817744574, 10.7471427258245, 0,  !- X,Y,Z Vertex 3 {m}
  17.2888817744574, 0, 0;                 !- X,Y,Z Vertex 4 {m}

OS:Surface,
  {c4215136-ce43-455d-9775-6136f95751dc}, !- Handle
  Surface 2,                              !- Name
  Wall,                                   !- Surface Type
  {34f60e06-fd2f-42b0-b81a-0000cd040c92}, !- Construction Name
  {9150b9da-f6ee-42f8-bf03-f2f6e0fafcdc}, !- Space Name
  Outdoors,                               !- Outside Boundary Condition
  ,                                       !- Outside Boundary Condition Object
  SunExposed,                             !- Sun Exposure
  WindExposed,                            !- Wind Exposure
  ,                                       !- View Factor to Ground
  ,                                       !- Number of Vertices
  0, 10.7471427258245, 2.4384,            !- X,Y,Z Vertex 1 {m}
  0, 10.7471427258245, 0,                 !- X,Y,Z Vertex 2 {m}
  0, 0, 0,                                !- X,Y,Z Vertex 3 {m}
  0, 0, 2.4384;                           !- X,Y,Z Vertex 4 {m}

OS:Surface,
  {d214b045-533d-43fc-8a96-670ad58e0ee6}, !- Handle
  Surface 3,                              !- Name
  Wall,                                   !- Surface Type
  {34f60e06-fd2f-42b0-b81a-0000cd040c92}, !- Construction Name
  {9150b9da-f6ee-42f8-bf03-f2f6e0fafcdc}, !- Space Name
  Outdoors,                               !- Outside Boundary Condition
  ,                                       !- Outside Boundary Condition Object
  SunExposed,                             !- Sun Exposure
  WindExposed,                            !- Wind Exposure
  ,                                       !- View Factor to Ground
  ,                                       !- Number of Vertices
  17.2888817744574, 10.7471427258245, 2.4384, !- X,Y,Z Vertex 1 {m}
  17.2888817744574, 10.7471427258245, 0,  !- X,Y,Z Vertex 2 {m}
  0, 10.7471427258245, 0,                 !- X,Y,Z Vertex 3 {m}
  0, 10.7471427258245, 2.4384;            !- X,Y,Z Vertex 4 {m}

OS:Surface,
  {e38bd61b-9675-46ab-99e3-bfcb09fcab8d}, !- Handle
  Surface 4,                              !- Name
  Wall,                                   !- Surface Type
  {34f60e06-fd2f-42b0-b81a-0000cd040c92}, !- Construction Name
  {9150b9da-f6ee-42f8-bf03-f2f6e0fafcdc}, !- Space Name
  Outdoors,                               !- Outside Boundary Condition
  ,                                       !- Outside Boundary Condition Object
  SunExposed,                             !- Sun Exposure
  WindExposed,                            !- Wind Exposure
  ,                                       !- View Factor to Ground
  ,                                       !- Number of Vertices
  17.2888817744574, 0, 2.4384,            !- X,Y,Z Vertex 1 {m}
  17.2888817744574, 0, 0,                 !- X,Y,Z Vertex 2 {m}
  17.2888817744574, 10.7471427258245, 0,  !- X,Y,Z Vertex 3 {m}
  17.2888817744574, 10.7471427258245, 2.4384; !- X,Y,Z Vertex 4 {m}

OS:Surface,
  {b26b305e-47b7-4140-8892-6e77b969e07a}, !- Handle
  Surface 5,                              !- Name
  Wall,                                   !- Surface Type
  {34f60e06-fd2f-42b0-b81a-0000cd040c92}, !- Construction Name
  {9150b9da-f6ee-42f8-bf03-f2f6e0fafcdc}, !- Space Name
  Outdoors,                               !- Outside Boundary Condition
  ,                                       !- Outside Boundary Condition Object
  SunExposed,                             !- Sun Exposure
  WindExposed,                            !- Wind Exposure
  ,                                       !- View Factor to Ground
  ,                                       !- Number of Vertices
  17.2888817744574, 0, 0,                 !- X,Y,Z Vertex 1 {m}
  17.2888817744574, 0, 2.4384,            !- X,Y,Z Vertex 2 {m}
  1.04865714285714, 0, 2.4384,            !- X,Y,Z Vertex 3 {m}
  1.04865714285714, 0, 0;                 !- X,Y,Z Vertex 4 {m}

OS:Surface,
  {4efbe7d9-96a8-447a-b8f2-29203aa13cac}, !- Handle
  Surface 6,                              !- Name
  RoofCeiling,                            !- Surface Type
  {b9618f4b-570f-4274-92bb-cdfc851fd30b}, !- Construction Name
  {9150b9da-f6ee-42f8-bf03-f2f6e0fafcdc}, !- Space Name
  Surface,                                !- Outside Boundary Condition
  {19643874-dd24-4e82-a46e-ec10b5bf0a0f}, !- Outside Boundary Condition Object
  NoSun,                                  !- Sun Exposure
  NoWind,                                 !- Wind Exposure
  ,                                       !- View Factor to Ground
  ,                                       !- Number of Vertices
  17.2888817744574, 0, 2.4384,            !- X,Y,Z Vertex 1 {m}
  17.2888817744574, 10.7471427258245, 2.4384, !- X,Y,Z Vertex 2 {m}
  0, 10.7471427258245, 2.4384,            !- X,Y,Z Vertex 3 {m}
  0, 0, 2.4384;                           !- X,Y,Z Vertex 4 {m}

OS:SpaceType,
  {65af4f4b-edd6-4e83-bb03-79ca89d1229d}, !- Handle
  Space Type 1,                           !- Name
  ,                                       !- Default Construction Set Name
  ,                                       !- Default Schedule Set Name
  ,                                       !- Group Rendering Name
  ,                                       !- Design Specification Outdoor Air Object Name
  ,                                       !- Standards Template
  ,                                       !- Standards Building Type
  living;                                 !- Standards Space Type

OS:Surface,
  {19643874-dd24-4e82-a46e-ec10b5bf0a0f}, !- Handle
  Surface 7,                              !- Name
  Floor,                                  !- Surface Type
  {6f4472c4-ef23-4d63-96e3-c6d14b4c668f}, !- Construction Name
  {1d79f345-ac6b-4e15-a64d-0eac9d1930db}, !- Space Name
  Surface,                                !- Outside Boundary Condition
  {4efbe7d9-96a8-447a-b8f2-29203aa13cac}, !- Outside Boundary Condition Object
  NoSun,                                  !- Sun Exposure
  NoWind,                                 !- Wind Exposure
  ,                                       !- View Factor to Ground
  ,                                       !- Number of Vertices
  0, 10.7471427258245, 0,                 !- X,Y,Z Vertex 1 {m}
  17.2888817744574, 10.7471427258245, 0,  !- X,Y,Z Vertex 2 {m}
  17.2888817744574, 0, 0,                 !- X,Y,Z Vertex 3 {m}
  0, 0, 0;                                !- X,Y,Z Vertex 4 {m}

OS:Surface,
  {0b7bc79b-3981-4205-9db9-569236f8e2c4}, !- Handle
  Surface 8,                              !- Name
  RoofCeiling,                            !- Surface Type
  {c9fb9b6b-e479-40fb-a80c-ec06e6dbe801}, !- Construction Name
  {1d79f345-ac6b-4e15-a64d-0eac9d1930db}, !- Space Name
  Outdoors,                               !- Outside Boundary Condition
  ,                                       !- Outside Boundary Condition Object
  SunExposed,                             !- Sun Exposure
  WindExposed,                            !- Wind Exposure
  ,                                       !- View Factor to Ground
  ,                                       !- Number of Vertices
  17.2888817744574, 5.37357136291227, 2.68678568145614, !- X,Y,Z Vertex 1 {m}
  0, 5.37357136291227, 2.68678568145614,  !- X,Y,Z Vertex 2 {m}
  0, 0, 0,                                !- X,Y,Z Vertex 3 {m}
  17.2888817744574, 0, 0;                 !- X,Y,Z Vertex 4 {m}

OS:Surface,
  {41194f3d-573d-4e11-b72f-bbfb9132a2e8}, !- Handle
  Surface 9,                              !- Name
  RoofCeiling,                            !- Surface Type
  {c9fb9b6b-e479-40fb-a80c-ec06e6dbe801}, !- Construction Name
  {1d79f345-ac6b-4e15-a64d-0eac9d1930db}, !- Space Name
  Outdoors,                               !- Outside Boundary Condition
  ,                                       !- Outside Boundary Condition Object
  SunExposed,                             !- Sun Exposure
  WindExposed,                            !- Wind Exposure
  ,                                       !- View Factor to Ground
  ,                                       !- Number of Vertices
  0, 5.37357136291227, 2.68678568145614,  !- X,Y,Z Vertex 1 {m}
  17.2888817744574, 5.37357136291227, 2.68678568145614, !- X,Y,Z Vertex 2 {m}
  17.2888817744574, 10.7471427258245, 0,  !- X,Y,Z Vertex 3 {m}
  0, 10.7471427258245, 0;                 !- X,Y,Z Vertex 4 {m}

OS:Surface,
  {7b5d9356-aeec-4350-a775-21ee7d63398f}, !- Handle
  Surface 10,                             !- Name
  Wall,                                   !- Surface Type
  {28c80798-4ece-4ff5-b25e-7b7a22989005}, !- Construction Name
  {1d79f345-ac6b-4e15-a64d-0eac9d1930db}, !- Space Name
  Outdoors,                               !- Outside Boundary Condition
  ,                                       !- Outside Boundary Condition Object
  SunExposed,                             !- Sun Exposure
  WindExposed,                            !- Wind Exposure
  ,                                       !- View Factor to Ground
  ,                                       !- Number of Vertices