!- NOTE: Auto-generated from /test/osw_files/SFD_70heat_75cool_12mo_seasons_FB.osw

OS:Version,
  {5e9f3cf9-f62d-45c6-a3eb-493689c21855}, !- Handle
  2.8.1;                                  !- Version Identifier

OS:SimulationControl,
  {bca92396-032f-4dfa-8178-0859d9d95e84}, !- Handle
  ,                                       !- Do Zone Sizing Calculation
  ,                                       !- Do System Sizing Calculation
  ,                                       !- Do Plant Sizing Calculation
  No;                                     !- Run Simulation for Sizing Periods

OS:Timestep,
  {cf794d35-fa8b-4225-8085-bd1078b01830}, !- Handle
  6;                                      !- Number of Timesteps per Hour

OS:ShadowCalculation,
  {17697ace-7b8d-4ed7-96a9-f1e7e7ae2bc3}, !- Handle
  20,                                     !- Calculation Frequency
  200;                                    !- Maximum Figures in Shadow Overlap Calculations

OS:SurfaceConvectionAlgorithm:Outside,
  {c197585b-f283-4e69-ab11-2b2ca25c3cba}, !- Handle
  DOE-2;                                  !- Algorithm

OS:SurfaceConvectionAlgorithm:Inside,
  {b02ad1d8-78b3-4d50-b62b-5a09b814fe3e}, !- Handle
  TARP;                                   !- Algorithm

OS:ZoneCapacitanceMultiplier:ResearchSpecial,
  {3d9fd638-372b-4280-800c-8a56c1e86fd8}, !- Handle
  ,                                       !- Temperature Capacity Multiplier
  15,                                     !- Humidity Capacity Multiplier
  ;                                       !- Carbon Dioxide Capacity Multiplier

OS:RunPeriod,
  {cc02d45d-58ee-4c6b-9912-3fbd67d6f946}, !- Handle
  Run Period 1,                           !- Name
  1,                                      !- Begin Month
  1,                                      !- Begin Day of Month
  12,                                     !- End Month
  31,                                     !- End Day of Month
  ,                                       !- Use Weather File Holidays and Special Days
  ,                                       !- Use Weather File Daylight Saving Period
  ,                                       !- Apply Weekend Holiday Rule
  ,                                       !- Use Weather File Rain Indicators
  ,                                       !- Use Weather File Snow Indicators
  ;                                       !- Number of Times Runperiod to be Repeated

OS:YearDescription,
  {5691c366-de77-4002-9cdb-76d3067d86fd}, !- Handle
  2007,                                   !- Calendar Year
  ,                                       !- Day of Week for Start Day
  ;                                       !- Is Leap Year

OS:ThermalZone,
  {7428e9d0-4b5c-4303-b7f6-2c8de46729a6}, !- Handle
  living zone,                            !- Name
  ,                                       !- Multiplier
  ,                                       !- Ceiling Height {m}
  ,                                       !- Volume {m3}
  ,                                       !- Floor Area {m2}
  ,                                       !- Zone Inside Convection Algorithm
  ,                                       !- Zone Outside Convection Algorithm
  ,                                       !- Zone Conditioning Equipment List Name
  {ca704fd7-618c-4123-bf9c-6f442283aadb}, !- Zone Air Inlet Port List
  {1153f4a8-1974-46a7-9017-90f1cd82c5eb}, !- Zone Air Exhaust Port List
  {d2785210-3e2f-4bee-83f6-2860445feca7}, !- Zone Air Node Name
  {b6c4fe9a-21e8-4ed7-aa9d-74dfc2aadd1f}, !- Zone Return Air Port List
  ,                                       !- Primary Daylighting Control Name
  ,                                       !- Fraction of Zone Controlled by Primary Daylighting Control
  ,                                       !- Secondary Daylighting Control Name
  ,                                       !- Fraction of Zone Controlled by Secondary Daylighting Control
  ,                                       !- Illuminance Map Name
  ,                                       !- Group Rendering Name
  {e447c8cd-32c2-45d4-bed3-bc927bd0f668}, !- Thermostat Name
  No;                                     !- Use Ideal Air Loads

OS:Node,
  {a0e002a7-9a82-4d91-a1ef-c3ae6f7efc55}, !- Handle
  Node 1,                                 !- Name
  {d2785210-3e2f-4bee-83f6-2860445feca7}, !- Inlet Port
  ;                                       !- Outlet Port

OS:Connection,
  {d2785210-3e2f-4bee-83f6-2860445feca7}, !- Handle
  {0c297f91-d4b6-4384-96bc-a6b4d9d4bbaa}, !- Name
  {7428e9d0-4b5c-4303-b7f6-2c8de46729a6}, !- Source Object
  11,                                     !- Outlet Port
  {a0e002a7-9a82-4d91-a1ef-c3ae6f7efc55}, !- Target Object
  2;                                      !- Inlet Port

OS:PortList,
  {ca704fd7-618c-4123-bf9c-6f442283aadb}, !- Handle
  {1e461991-07e8-4f05-a49f-cd2809354260}, !- Name
  {7428e9d0-4b5c-4303-b7f6-2c8de46729a6}, !- HVAC Component
  {4694b74d-c26e-4c15-a6e3-42d960574bed}, !- Port 1
  {1bb58fba-8add-43d3-af40-693113e7cde6}; !- Port 2

OS:PortList,
  {1153f4a8-1974-46a7-9017-90f1cd82c5eb}, !- Handle
  {9844e78a-eee3-44f5-8478-64d97c727f0b}, !- Name
  {7428e9d0-4b5c-4303-b7f6-2c8de46729a6}; !- HVAC Component

OS:PortList,
  {b6c4fe9a-21e8-4ed7-aa9d-74dfc2aadd1f}, !- Handle
  {d19c3f7d-9759-4d00-883d-9562005c6ed8}, !- Name
  {7428e9d0-4b5c-4303-b7f6-2c8de46729a6}, !- HVAC Component
  {493455f8-c5f5-4f65-8765-cb97ee99ab7d}, !- Port 1
  {122e55c4-8ce3-4a5e-bcfd-8652d06aa90a}; !- Port 2

OS:Sizing:Zone,
  {c93a51db-0a36-493e-85ed-20c46eba6795}, !- Handle
  {7428e9d0-4b5c-4303-b7f6-2c8de46729a6}, !- Zone or ZoneList Name
  SupplyAirTemperature,                   !- Zone Cooling Design Supply Air Temperature Input Method
  14,                                     !- Zone Cooling Design Supply Air Temperature {C}
  11.11,                                  !- Zone Cooling Design Supply Air Temperature Difference {deltaC}
  SupplyAirTemperature,                   !- Zone Heating Design Supply Air Temperature Input Method
  40,                                     !- Zone Heating Design Supply Air Temperature {C}
  11.11,                                  !- Zone Heating Design Supply Air Temperature Difference {deltaC}
  0.0085,                                 !- Zone Cooling Design Supply Air Humidity Ratio {kg-H2O/kg-air}
  0.008,                                  !- Zone Heating Design Supply Air Humidity Ratio {kg-H2O/kg-air}
  ,                                       !- Zone Heating Sizing Factor
  ,                                       !- Zone Cooling Sizing Factor
  DesignDay,                              !- Cooling Design Air Flow Method
  ,                                       !- Cooling Design Air Flow Rate {m3/s}
  ,                                       !- Cooling Minimum Air Flow per Zone Floor Area {m3/s-m2}
  ,                                       !- Cooling Minimum Air Flow {m3/s}
  ,                                       !- Cooling Minimum Air Flow Fraction
  DesignDay,                              !- Heating Design Air Flow Method
  ,                                       !- Heating Design Air Flow Rate {m3/s}
  ,                                       !- Heating Maximum Air Flow per Zone Floor Area {m3/s-m2}
  ,                                       !- Heating Maximum Air Flow {m3/s}
  ,                                       !- Heating Maximum Air Flow Fraction
  ,                                       !- Design Zone Air Distribution Effectiveness in Cooling Mode
  ,                                       !- Design Zone Air Distribution Effectiveness in Heating Mode
  No,                                     !- Account for Dedicated Outdoor Air System
  NeutralSupplyAir,                       !- Dedicated Outdoor Air System Control Strategy
  autosize,                               !- Dedicated Outdoor Air Low Setpoint Temperature for Design {C}
  autosize;                               !- Dedicated Outdoor Air High Setpoint Temperature for Design {C}

OS:ZoneHVAC:EquipmentList,
  {d6287abb-3163-4219-8fd7-a319b62792b8}, !- Handle
  Zone HVAC Equipment List 1,             !- Name
  {7428e9d0-4b5c-4303-b7f6-2c8de46729a6}, !- Thermal Zone
  SequentialLoad,                         !- Load Distribution Scheme
  {6f1a9db0-acae-43cf-9a40-a9476ba76e03}, !- Zone Equipment 1
  1,                                      !- Zone Equipment Cooling Sequence 1
  1,                                      !- Zone Equipment Heating or No-Load Sequence 1
  ,                                       !- Zone Equipment Sequential Cooling Fraction 1
  ,                                       !- Zone Equipment Sequential Heating Fraction 1
  {e4fcb004-bb02-47dc-b712-134baf2c9d32}, !- Zone Equipment 2
  2,                                      !- Zone Equipment Cooling Sequence 2
  2,                                      !- Zone Equipment Heating or No-Load Sequence 2
  ,                                       !- Zone Equipment Sequential Cooling Fraction 2
  ;                                       !- Zone Equipment Sequential Heating Fraction 2

OS:ThermalZone,
  {73e3bc48-2406-49ff-93f5-aef550d408be}, !- Handle
  garage zone,                            !- Name
  ,                                       !- Multiplier
  ,                                       !- Ceiling Height {m}
  ,                                       !- Volume {m3}
  ,                                       !- Floor Area {m2}
  ,                                       !- Zone Inside Convection Algorithm
  ,                                       !- Zone Outside Convection Algorithm
  ,                                       !- Zone Conditioning Equipment List Name
  {2b4ef4bf-282e-4378-8a9c-6d1237d117a6}, !- Zone Air Inlet Port List
  {e8d7d72a-2b2c-4012-a65d-fa578c16e21f}, !- Zone Air Exhaust Port List
  {ca5d6e3e-53ef-4fe6-8a4e-c577beface26}, !- Zone Air Node Name
  {e1913aa2-0592-4fc1-9329-17a200aab8e6}, !- Zone Return Air Port List
  ,                                       !- Primary Daylighting Control Name
  ,                                       !- Fraction of Zone Controlled by Primary Daylighting Control
  ,                                       !- Secondary Daylighting Control Name
  ,                                       !- Fraction of Zone Controlled by Secondary Daylighting Control
  ,                                       !- Illuminance Map Name
  ,                                       !- Group Rendering Name
  ,                                       !- Thermostat Name
  No;                                     !- Use Ideal Air Loads

OS:Node,
  {8420e23e-2e36-45db-acbb-c9cde0a7eb46}, !- Handle
  Node 2,                                 !- Name
  {ca5d6e3e-53ef-4fe6-8a4e-c577beface26}, !- Inlet Port
  ;                                       !- Outlet Port

OS:Connection,
  {ca5d6e3e-53ef-4fe6-8a4e-c577beface26}, !- Handle
  {6609d279-4ecd-4bc0-8d25-b45fabb584f8}, !- Name
  {73e3bc48-2406-49ff-93f5-aef550d408be}, !- Source Object
  11,                                     !- Outlet Port
  {8420e23e-2e36-45db-acbb-c9cde0a7eb46}, !- Target Object
  2;                                      !- Inlet Port

OS:PortList,
  {2b4ef4bf-282e-4378-8a9c-6d1237d117a6}, !- Handle
  {259b2111-9e79-4463-963f-aacf232d9830}, !- Name
  {73e3bc48-2406-49ff-93f5-aef550d408be}; !- HVAC Component

OS:PortList,
  {e8d7d72a-2b2c-4012-a65d-fa578c16e21f}, !- Handle
  {15f543f0-b10f-4f6d-ab68-fa2c3d1cc389}, !- Name
  {73e3bc48-2406-49ff-93f5-aef550d408be}; !- HVAC Component

OS:PortList,
  {e1913aa2-0592-4fc1-9329-17a200aab8e6}, !- Handle
  {19c266f9-54f2-475b-bbe3-a54dbff77130}, !- Name
  {73e3bc48-2406-49ff-93f5-aef550d408be}; !- HVAC Component

OS:Sizing:Zone,
  {689bcd7e-4d63-4f02-bf9b-93aa01bacdc4}, !- Handle
  {73e3bc48-2406-49ff-93f5-aef550d408be}, !- Zone or ZoneList Name
  SupplyAirTemperature,                   !- Zone Cooling Design Supply Air Temperature Input Method
  14,                                     !- Zone Cooling Design Supply Air Temperature {C}
  11.11,                                  !- Zone Cooling Design Supply Air Temperature Difference {deltaC}
  SupplyAirTemperature,                   !- Zone Heating Design Supply Air Temperature Input Method
  40,                                     !- Zone Heating Design Supply Air Temperature {C}
  11.11,                                  !- Zone Heating Design Supply Air Temperature Difference {deltaC}
  0.0085,                                 !- Zone Cooling Design Supply Air Humidity Ratio {kg-H2O/kg-air}
  0.008,                                  !- Zone Heating Design Supply Air Humidity Ratio {kg-H2O/kg-air}
  ,                                       !- Zone Heating Sizing Factor
  ,                                       !- Zone Cooling Sizing Factor
  DesignDay,                              !- Cooling Design Air Flow Method
  ,                                       !- Cooling Design Air Flow Rate {m3/s}
  ,                                       !- Cooling Minimum Air Flow per Zone Floor Area {m3/s-m2}
  ,                                       !- Cooling Minimum Air Flow {m3/s}
  ,                                       !- Cooling Minimum Air Flow Fraction
  DesignDay,                              !- Heating Design Air Flow Method
  ,                                       !- Heating Design Air Flow Rate {m3/s}
  ,                                       !- Heating Maximum Air Flow per Zone Floor Area {m3/s-m2}
  ,                                       !- Heating Maximum Air Flow {m3/s}
  ,                                       !- Heating Maximum Air Flow Fraction
  ,                                       !- Design Zone Air Distribution Effectiveness in Cooling Mode
  ,                                       !- Design Zone Air Distribution Effectiveness in Heating Mode
  No,                                     !- Account for Dedicated Outdoor Air System
  NeutralSupplyAir,                       !- Dedicated Outdoor Air System Control Strategy
  autosize,                               !- Dedicated Outdoor Air Low Setpoint Temperature for Design {C}
  autosize;                               !- Dedicated Outdoor Air High Setpoint Temperature for Design {C}

OS:ZoneHVAC:EquipmentList,
  {de28bc22-decb-4795-af13-4b62d87683c3}, !- Handle
  Zone HVAC Equipment List 2,             !- Name
  {73e3bc48-2406-49ff-93f5-aef550d408be}; !- Thermal Zone

OS:Space,
  {584605f1-f305-419c-a02d-2de5348cb78d}, !- Handle
  garage space,                           !- Name
  {3bb79857-d27d-47fe-b0ae-acc11d450056}, !- Space Type Name
  ,                                       !- Default Construction Set Name
  ,                                       !- Default Schedule Set Name
  -0,                                     !- Direction of Relative North {deg}
  0,                                      !- X Origin {m}
  0,                                      !- Y Origin {m}
  0,                                      !- Z Origin {m}
  ,                                       !- Building Story Name
  {73e3bc48-2406-49ff-93f5-aef550d408be}; !- Thermal Zone Name

OS:Surface,
  {cc42b155-6318-4844-a0d8-641237c506ee}, !- Handle
  Surface 1,                              !- Name
  Floor,                                  !- Surface Type
  ,                                       !- Construction Name
  {584605f1-f305-419c-a02d-2de5348cb78d}, !- Space Name
  Foundation,                             !- Outside Boundary Condition
  ,                                       !- Outside Boundary Condition Object
  NoSun,                                  !- Sun Exposure
  NoWind,                                 !- Wind Exposure
  ,                                       !- View Factor to Ground
  ,                                       !- Number of Vertices
  1.51135555430162, -3.6576, 0,           !- X,Y,Z Vertex 1 {m}
  1.51135555430162, 3.6576, 0,            !- X,Y,Z Vertex 2 {m}
  12.4841555543016, 3.6576, 0,            !- X,Y,Z Vertex 3 {m}
  12.4841555543016, -3.6576, 0;           !- X,Y,Z Vertex 4 {m}

OS:Surface,
  {ad6f8abb-9210-45c6-8390-1bf73fb14e36}, !- Handle
  Surface 2,                              !- Name
  Wall,                                   !- Surface Type
  ,                                       !- Construction Name
  {584605f1-f305-419c-a02d-2de5348cb78d}, !- Space Name
  Surface,                                !- Outside Boundary Condition
  {554cb809-22ea-44dd-b5f0-46fcadb2b91f}, !- Outside Boundary Condition Object
  NoSun,                                  !- Sun Exposure
  NoWind,                                 !- Wind Exposure
  ,                                       !- View Factor to Ground
  ,                                       !- Number of Vertices
  1.51135555430162, 3.6576, 2.4384,       !- X,Y,Z Vertex 1 {m}
  1.51135555430162, 3.6576, 0,            !- X,Y,Z Vertex 2 {m}
  1.51135555430162, 0, 0,                 !- X,Y,Z Vertex 3 {m}
  1.51135555430162, 0, 2.4384;            !- X,Y,Z Vertex 4 {m}

OS:Surface,
  {ecf57828-0b51-4a94-b335-e72f79351fde}, !- Handle
  Surface 3,                              !- Name
  Wall,                                   !- Surface Type
  ,                                       !- Construction Name
  {584605f1-f305-419c-a02d-2de5348cb78d}, !- Space Name
  Surface,                                !- Outside Boundary Condition
  {6e1e85db-5748-43d4-849b-9afc2541f374}, !- Outside Boundary Condition Object
  NoSun,                                  !- Sun Exposure
  NoWind,                                 !- Wind Exposure
  ,                                       !- View Factor to Ground
  ,                                       !- Number of Vertices
  12.4841555543016, 3.6576, 2.4384,       !- X,Y,Z Vertex 1 {m}
  12.4841555543016, 3.6576, 0,            !- X,Y,Z Vertex 2 {m}
  1.51135555430162, 3.6576, 0,            !- X,Y,Z Vertex 3 {m}
  1.51135555430162, 3.6576, 2.4384;       !- X,Y,Z Vertex 4 {m}

OS:Surface,
  {c552b733-429b-426a-985a-8ab4f0490716}, !- Handle
  Surface 4,                              !- Name
  Wall,                                   !- Surface Type
  ,                                       !- Construction Name
  {584605f1-f305-419c-a02d-2de5348cb78d}, !- Space Name
  Outdoors,                               !- Outside Boundary Condition
  ,                                       !- Outside Boundary Condition Object
  SunExposed,                             !- Sun Exposure
  WindExposed,                            !- Wind Exposure
  ,                                       !- View Factor to Ground
  ,                                       !- Number of Vertices
  12.4841555543016, -3.6576, 2.4384,      !- X,Y,Z Vertex 1 {m}
  12.4841555543016, -3.6576, 0,           !- X,Y,Z Vertex 2 {m}
  12.4841555543016, 3.6576, 0,            !- X,Y,Z Vertex 3 {m}
  12.4841555543016, 3.6576, 2.4384;       !- X,Y,Z Vertex 4 {m}

OS:Surface,
  {2c681102-d656-4a6a-9d43-74c2e25fdd13}, !- Handle
  Surface 5,                              !- Name
  Wall,                                   !- Surface Type
  ,                                       !- Construction Name
  {584605f1-f305-419c-a02d-2de5348cb78d}, !- Space Name
  Outdoors,                               !- Outside Boundary Condition
  ,                                       !- Outside Boundary Condition Object
  SunExposed,                             !- Sun Exposure
  WindExposed,                            !- Wind Exposure
  ,                                       !- View Factor to Ground
  ,                                       !- Number of Vertices
  1.51135555430162, -3.6576, 2.4384,      !- X,Y,Z Vertex 1 {m}
  1.51135555430162, -3.6576, 0,           !- X,Y,Z Vertex 2 {m}
  12.4841555543016, -3.6576, 0,           !- X,Y,Z Vertex 3 {m}
  12.4841555543016, -3.6576, 2.4384;      !- X,Y,Z Vertex 4 {m}

OS:Surface,
  {6a9c3ace-082b-44b3-9ce0-b60b9398e4a2}, !- Handle
  Surface 6,                              !- Name
  RoofCeiling,                            !- Surface Type
  ,                                       !- Construction Name
  {584605f1-f305-419c-a02d-2de5348cb78d}, !- Space Name
  Surface,                                !- Outside Boundary Condition
  {7d9b353b-8682-4a14-bdba-c7da0deccacc}, !- Outside Boundary Condition Object
  NoSun,                                  !- Sun Exposure
  NoWind,                                 !- Wind Exposure
  ,                                       !- View Factor to Ground
  ,                                       !- Number of Vertices
  12.4841555543016, 0, 2.4384,            !- X,Y,Z Vertex 1 {m}
  12.4841555543016, 3.6576, 2.4384,       !- X,Y,Z Vertex 2 {m}
  1.51135555430162, 3.6576, 2.4384,       !- X,Y,Z Vertex 3 {m}
  1.51135555430162, 0, 2.4384;            !- X,Y,Z Vertex 4 {m}

OS:SpaceType,
  {3bb79857-d27d-47fe-b0ae-acc11d450056}, !- Handle
  Space Type 1,                           !- Name
  ,                                       !- Default Construction Set Name
  ,                                       !- Default Schedule Set Name
  ,                                       !- Group Rendering Name
  ,                                       !- Design Specification Outdoor Air Object Name
  ,                                       !- Standards Template
  ,                                       !- Standards Building Type
  garage;                                 !- Standards Space Type

OS:Space,
  {059f8038-70b4-40cc-8978-55abd52c4e6c}, !- Handle
  living space,                           !- Name
  {72918071-26f0-4682-8afc-a7ae637fc5f6}, !- Space Type Name
  ,                                       !- Default Construction Set Name
  ,                                       !- Default Schedule Set Name
  -0,                                     !- Direction of Relative North {deg}
  0,                                      !- X Origin {m}
  0,                                      !- Y Origin {m}
  0,                                      !- Z Origin {m}
  ,                                       !- Building Story Name
  {7428e9d0-4b5c-4303-b7f6-2c8de46729a6}, !- Thermal Zone Name
  ,                                       !- Part of Total Floor Area
  ,                                       !- Design Specification Outdoor Air Object Name
  {f4d9aa68-3afc-480a-b88c-2f0e27f46827}; !- Building Unit Name

OS:Surface,
  {194f1dd9-0989-4e40-b329-f9ce0f33567e}, !- Handle
  Surface 7,                              !- Name
  Floor,                                  !- Surface Type
  ,                                       !- Construction Name
  {059f8038-70b4-40cc-8978-55abd52c4e6c}, !- Space Name
  Surface,                                !- Outside Boundary Condition
  {5dd9fd32-f806-4219-8e90-7d54f91beb53}, !- Outside Boundary Condition Object
  NoSun,                                  !- Sun Exposure
  NoWind,                                 !- Wind Exposure
  ,                                       !- View Factor to Ground
  ,                                       !- Number of Vertices
  0, 0, 0,                                !- X,Y,Z Vertex 1 {m}
  0, 6.93564197461201, 0,                 !- X,Y,Z Vertex 2 {m}
  12.4841555543016, 6.93564197461201, 0,  !- X,Y,Z Vertex 3 {m}
  12.4841555543016, 3.6576, 0,            !- X,Y,Z Vertex 4 {m}
  1.51135555430162, 3.6576, 0,            !- X,Y,Z Vertex 5 {m}
  1.51135555430162, 0, 0;                 !- X,Y,Z Vertex 6 {m}

OS:Surface,
  {85ae464e-f4a2-4243-b813-afe573bf49d9}, !- Handle
  Surface 8,                              !- Name
  Wall,                                   !- Surface Type
  ,                                       !- Construction Name
  {059f8038-70b4-40cc-8978-55abd52c4e6c}, !- Space Name
  Outdoors,                               !- Outside Boundary Condition
  ,                                       !- Outside Boundary Condition Object
  SunExposed,                             !- Sun Exposure
  WindExposed,                            !- Wind Exposure
  ,                                       !- View Factor to Ground
  ,                                       !- Number of Vertices
  0, 6.93564197461201, 2.4384,            !- X,Y,Z Vertex 1 {m}
  0, 6.93564197461201, 0,                 !- X,Y,Z Vertex 2 {m}
  0, 0, 0,                                !- X,Y,Z Vertex 3 {m}
  0, 0, 2.4384;                           !- X,Y,Z Vertex 4 {m}

OS:Surface,
  {48d4a25e-3a7b-4056-9828-e6d306a30f9a}, !- Handle
  Surface 9,                              !- Name
  Wall,                                   !- Surface Type
  ,                                       !- Construction Name
  {059f8038-70b4-40cc-8978-55abd52c4e6c}, !- Space Name
  Outdoors,                               !- Outside Boundary Condition
  ,                                       !- Outside Boundary Condition Object
  SunExposed,                             !- Sun Exposure
  WindExposed,                            !- Wind Exposure
  ,                                       !- View Factor to Ground
  ,                                       !- Number of Vertices
  12.4841555543016, 6.93564197461201, 2.4384, !- X,Y,Z Vertex 1 {m}
  12.4841555543016, 6.93564197461201, 0,  !- X,Y,Z Vertex 2 {m}
  0, 6.93564197461201, 0,                 !- X,Y,Z Vertex 3 {m}
  0, 6.93564197461201, 2.4384;            !- X,Y,Z Vertex 4 {m}

OS:Surface,
  {755e347a-9cf5-4899-b5c6-9f1f95c81037}, !- Handle
  Surface 10,                             !- Name
  Wall,                                   !- Surface Type
  ,                                       !- Construction Name
  {059f8038-70b4-40cc-8978-55abd52c4e6c}, !- Space Name
  Outdoors,                               !- Outside Boundary Condition
  ,                                       !- Outside Boundary Condition Object
  SunExposed,                             !- Sun Exposure
  WindExposed,                            !- Wind Exposure
  ,                                       !- View Factor to Ground
  ,                                       !- Number of Vertices
  12.4841555543016, 3.6576, 2.4384,       !- X,Y,Z Vertex 1 {m}
  12.4841555543016, 3.6576, 0,            !- X,Y,Z Vertex 2 {m}
  12.4841555543016, 6.93564197461201, 0,  !- X,Y,Z Vertex 3 {m}
  12.4841555543016, 6.93564197461201, 2.4384; !- X,Y,Z Vertex 4 {m}

OS:Surface,
  {6e1e85db-5748-43d4-849b-9afc2541f374}, !- Handle
  Surface 11,                             !- Name
  Wall,                                   !- Surface Type
  ,                                       !- Construction Name
  {059f8038-70b4-40cc-8978-55abd52c4e6c}, !- Space Name
  Surface,                                !- Outside Boundary Condition
  {ecf57828-0b51-4a94-b335-e72f79351fde}, !- Outside Boundary Condition Object
  NoSun,                                  !- Sun Exposure
  NoWind,                                 !- Wind Exposure
  ,                                       !- View Factor to Ground
  ,                                       !- Number of Vertices
  1.51135555430162, 3.6576, 2.4384,       !- X,Y,Z Vertex 1 {m}
  1.51135555430162, 3.6576, 0,            !- X,Y,Z Vertex 2 {m}
  12.4841555543016, 3.6576, 0,            !- X,Y,Z Vertex 3 {m}
  12.4841555543016, 3.6576, 2.4384;       !- X,Y,Z Vertex 4 {m}

OS:Surface,
  {554cb809-22ea-44dd-b5f0-46fcadb2b91f}, !- Handle
  Surface 12,                             !- Name
  Wall,                                   !- Surface Type
  ,                                       !- Construction Name
  {059f8038-70b4-40cc-8978-55abd52c4e6c}, !- Space Name
  Surface,                                !- Outside Boundary Condition
  {ad6f8abb-9210-45c6-8390-1bf73fb14e36}, !- Outside Boundary Condition Object
  NoSun,                                  !- Sun Exposure
  NoWind,                                 !- Wind Exposure
  ,                                       !- View Factor to Ground
  ,                                       !- Number of Vertices
  1.51135555430162, 0, 2.4384,            !- X,Y,Z Vertex 1 {m}
  1.51135555430162, 0, 0,                 !- X,Y,Z Vertex 2 {m}
  1.51135555430162, 3.6576, 0,            !- X,Y,Z Vertex 3 {m}
  1.51135555430162, 3.6576, 2.4384;       !- X,Y,Z Vertex 4 {m}

OS:Surface,
  {329366ff-9400-4e3a-96af-0d9c699d1a0d}, !- Handle
  Surface 13,                             !- Name
  Wall,                                   !- Surface Type
  ,                                       !- Construction Name
  {059f8038-70b4-40cc-8978-55abd52c4e6c}, !- Space Name
  Outdoors,                               !- Outside Boundary Condition
  ,                                       !- Outside Boundary Condition Object
  SunExposed,                             !- Sun Exposure
  WindExposed,                            !- Wind Exposure
  ,                                       !- View Factor to Ground
  ,                                       !- Number of Vertices
  0, 0, 2.4384,                           !- X,Y,Z Vertex 1 {m}
  0, 0, 0,                                !- X,Y,Z Vertex 2 {m}
  1.51135555430162, 0, 0,                 !- X,Y,Z Vertex 3 {m}
  1.51135555430162, 0, 2.4384;            !- X,Y,Z Vertex 4 {m}

OS:Surface,
  {c9738192-8fd1-49d9-bb5a-ef934a4c59d1}, !- Handle
  Surface 14,                             !- Name
  RoofCeiling,                            !- Surface Type
  ,                                       !- Construction Name
  {059f8038-70b4-40cc-8978-55abd52c4e6c}, !- Space Name
  Surface,                                !- Outside Boundary Condition
  {ed91b3e8-328a-42a2-bf43-8a910ef415e1}, !- Outside Boundary Condition Object
  NoSun,                                  !- Sun Exposure
  NoWind,                                 !- Wind Exposure
  ,                                       !- View Factor to Ground
  ,                                       !- Number of Vertices
  1.51135555430162, 0, 2.4384,            !- X,Y,Z Vertex 1 {m}
  1.51135555430162, 3.6576, 2.4384,       !- X,Y,Z Vertex 2 {m}
  12.4841555543016, 3.6576, 2.4384,       !- X,Y,Z Vertex 3 {m}