!- NOTE: Auto-generated from /test/osw_files/SFD_1story_UB_UA_ASHP2_HPWH.osw

OS:Version,
  {d7186e08-b4c9-4170-bb3b-01e1c46f8bc0}, !- Handle
  2.9.0;                                  !- Version Identifier

OS:SimulationControl,
  {99d600f8-18cb-43c1-9c24-764d978ae4fe}, !- Handle
  ,                                       !- Do Zone Sizing Calculation
  ,                                       !- Do System Sizing Calculation
  ,                                       !- Do Plant Sizing Calculation
  No;                                     !- Run Simulation for Sizing Periods

OS:Timestep,
  {ac56256d-8817-4a51-ab15-3970937ec251}, !- Handle
  6;                                      !- Number of Timesteps per Hour

OS:ShadowCalculation,
  {a03cb640-5144-4ca7-833d-d824bf4dda11}, !- Handle
  20,                                     !- Calculation Frequency
  200;                                    !- Maximum Figures in Shadow Overlap Calculations

OS:SurfaceConvectionAlgorithm:Outside,
  {9fc755cc-f0a0-4c7a-a94f-407d6f00c570}, !- Handle
  DOE-2;                                  !- Algorithm

OS:SurfaceConvectionAlgorithm:Inside,
  {3756f5fa-8f87-4eef-ad0d-71a325e05515}, !- Handle
  TARP;                                   !- Algorithm

OS:ZoneCapacitanceMultiplier:ResearchSpecial,
  {c1f0d19d-16f3-4207-8645-c3303511627c}, !- Handle
  ,                                       !- Temperature Capacity Multiplier
  15,                                     !- Humidity Capacity Multiplier
  ;                                       !- Carbon Dioxide Capacity Multiplier

OS:RunPeriod,
  {b415a215-c30a-4721-897c-b4b9541de1a2}, !- Handle
  Run Period 1,                           !- Name
  1,                                      !- Begin Month
  1,                                      !- Begin Day of Month
  12,                                     !- End Month
  31,                                     !- End Day of Month
  ,                                       !- Use Weather File Holidays and Special Days
  ,                                       !- Use Weather File Daylight Saving Period
  ,                                       !- Apply Weekend Holiday Rule
  ,                                       !- Use Weather File Rain Indicators
  ,                                       !- Use Weather File Snow Indicators
  ;                                       !- Number of Times Runperiod to be Repeated

OS:YearDescription,
  {c0a334b5-0ba7-451f-a18b-70b82030e7a3}, !- Handle
  2007,                                   !- Calendar Year
  ,                                       !- Day of Week for Start Day
  ;                                       !- Is Leap Year

OS:WeatherFile,
  {610eb9d8-ae53-4277-9a7a-b927c6ffcbb7}, !- Handle
  Denver Intl Ap,                         !- City
  CO,                                     !- State Province Region
  USA,                                    !- Country
  TMY3,                                   !- Data Source
  725650,                                 !- WMO Number
  39.83,                                  !- Latitude {deg}
  -104.65,                                !- Longitude {deg}
  -7,                                     !- Time Zone {hr}
  1650,                                   !- Elevation {m}
  file:../weather/USA_CO_Denver.Intl.AP.725650_TMY3.epw, !- Url
  E23378AA;                               !- Checksum

OS:AdditionalProperties,
  {25a96dbc-54a7-4c5f-a14e-c7a2e91dead4}, !- Handle
  {610eb9d8-ae53-4277-9a7a-b927c6ffcbb7}, !- Object Name
  EPWHeaderCity,                          !- Feature Name 1
  String,                                 !- Feature Data Type 1
  Denver Intl Ap,                         !- Feature Value 1
  EPWHeaderState,                         !- Feature Name 2
  String,                                 !- Feature Data Type 2
  CO,                                     !- Feature Value 2
  EPWHeaderCountry,                       !- Feature Name 3
  String,                                 !- Feature Data Type 3
  USA,                                    !- Feature Value 3
  EPWHeaderDataSource,                    !- Feature Name 4
  String,                                 !- Feature Data Type 4
  TMY3,                                   !- Feature Value 4
  EPWHeaderStation,                       !- Feature Name 5
  String,                                 !- Feature Data Type 5
  725650,                                 !- Feature Value 5
  EPWHeaderLatitude,                      !- Feature Name 6
  Double,                                 !- Feature Data Type 6
  39.829999999999998,                     !- Feature Value 6
  EPWHeaderLongitude,                     !- Feature Name 7
  Double,                                 !- Feature Data Type 7
  -104.65000000000001,                    !- Feature Value 7
  EPWHeaderTimezone,                      !- Feature Name 8
  Double,                                 !- Feature Data Type 8
  -7,                                     !- Feature Value 8
  EPWHeaderAltitude,                      !- Feature Name 9
  Double,                                 !- Feature Data Type 9
  5413.3858267716532,                     !- Feature Value 9
  EPWHeaderLocalPressure,                 !- Feature Name 10
  Double,                                 !- Feature Data Type 10
  0.81937567683596546,                    !- Feature Value 10
  EPWHeaderRecordsPerHour,                !- Feature Name 11
  Double,                                 !- Feature Data Type 11
  0,                                      !- Feature Value 11
  EPWDataAnnualAvgDrybulb,                !- Feature Name 12
  Double,                                 !- Feature Data Type 12
  51.575616438356228,                     !- Feature Value 12
  EPWDataAnnualMinDrybulb,                !- Feature Name 13
  Double,                                 !- Feature Data Type 13
  -2.9200000000000017,                    !- Feature Value 13
  EPWDataAnnualMaxDrybulb,                !- Feature Name 14
  Double,                                 !- Feature Data Type 14
  104,                                    !- Feature Value 14
  EPWDataCDD50F,                          !- Feature Name 15
  Double,                                 !- Feature Data Type 15
  3072.2925000000005,                     !- Feature Value 15
  EPWDataCDD65F,                          !- Feature Name 16
  Double,                                 !- Feature Data Type 16
  883.62000000000035,                     !- Feature Value 16
  EPWDataHDD50F,                          !- Feature Name 17
  Double,                                 !- Feature Data Type 17
  2497.1925000000001,                     !- Feature Value 17
  EPWDataHDD65F,                          !- Feature Name 18
  Double,                                 !- Feature Data Type 18
  5783.5200000000013,                     !- Feature Value 18
  EPWDataAnnualAvgWindspeed,              !- Feature Name 19
  Double,                                 !- Feature Data Type 19
  3.9165296803649667,                     !- Feature Value 19
  EPWDataMonthlyAvgDrybulbs,              !- Feature Name 20
  String,                                 !- Feature Data Type 20
  33.4191935483871&#4431.90142857142857&#4443.02620967741937&#4442.48624999999999&#4459.877741935483854&#4473.57574999999997&#4472.07975806451608&#4472.70008064516134&#4466.49200000000006&#4450.079112903225806&#4437.218250000000005&#4434.582177419354835, !- Feature Value 20
  EPWDataGroundMonthlyTemps,              !- Feature Name 21
  String,                                 !- Feature Data Type 21
  44.08306285945173&#4440.89570904991865&#4440.64045432632048&#4442.153016571250646&#4448.225111118704206&#4454.268919273837525&#4459.508577937551024&#4462.82777283423508&#4463.10975667174995&#4460.41014950381947&#4455.304105212311526&#4449.445696474514364, !- Feature Value 21
  EPWDataWSF,                             !- Feature Name 22
  Double,                                 !- Feature Data Type 22
  0.58999999999999997,                    !- Feature Value 22
  EPWDataMonthlyAvgDailyHighDrybulbs,     !- Feature Name 23
  String,                                 !- Feature Data Type 23
  47.41032258064516&#4446.58642857142857&#4455.15032258064517&#4453.708&#4472.80193548387098&#4488.67600000000002&#4486.1858064516129&#4485.87225806451613&#4482.082&#4463.18064516129033&#4448.73400000000001&#4448.87935483870968, !- Feature Value 23
  EPWDataMonthlyAvgDailyLowDrybulbs,      !- Feature Name 24
  String,                                 !- Feature Data Type 24
  19.347741935483874&#4419.856428571428573&#4430.316129032258065&#4431.112&#4447.41612903225806&#4457.901999999999994&#4459.063870967741934&#4460.956774193548384&#4452.352000000000004&#4438.41612903225806&#4427.002000000000002&#4423.02903225806451, !- Feature Value 24
  EPWDesignHeatingDrybulb,                !- Feature Name 25
  Double,                                 !- Feature Data Type 25
  12.02,                                  !- Feature Value 25
  EPWDesignHeatingWindspeed,              !- Feature Name 26
  Double,                                 !- Feature Data Type 26
  2.8062500000000004,                     !- Feature Value 26
  EPWDesignCoolingDrybulb,                !- Feature Name 27
  Double,                                 !- Feature Data Type 27
  91.939999999999998,                     !- Feature Value 27
  EPWDesignCoolingWetbulb,                !- Feature Name 28
  Double,                                 !- Feature Data Type 28
  59.95131430195849,                      !- Feature Value 28
  EPWDesignCoolingHumidityRatio,          !- Feature Name 29
  Double,                                 !- Feature Data Type 29
  0.0059161086834698092,                  !- Feature Value 29
  EPWDesignCoolingWindspeed,              !- Feature Name 30
  Double,                                 !- Feature Data Type 30
  3.7999999999999989,                     !- Feature Value 30
  EPWDesignDailyTemperatureRange,         !- Feature Name 31
  Double,                                 !- Feature Data Type 31
  24.915483870967748,                     !- Feature Value 31
  EPWDesignDehumidDrybulb,                !- Feature Name 32
  Double,                                 !- Feature Data Type 32
  67.996785714285721,                     !- Feature Value 32
  EPWDesignDehumidHumidityRatio,          !- Feature Name 33
  Double,                                 !- Feature Data Type 33
  0.012133744170488724,                   !- Feature Value 33
  EPWDesignCoolingDirectNormal,           !- Feature Name 34
  Double,                                 !- Feature Data Type 34
  985,                                    !- Feature Value 34
  EPWDesignCoolingDiffuseHorizontal,      !- Feature Name 35
  Double,                                 !- Feature Data Type 35
  84;                                     !- Feature Value 35

OS:Site,
  {36c67315-e278-424e-907b-cb4aa7956c43}, !- Handle
  Denver Intl Ap_CO_USA,                  !- Name
  39.83,                                  !- Latitude {deg}
  -104.65,                                !- Longitude {deg}
  -7,                                     !- Time Zone {hr}
  1650,                                   !- Elevation {m}
  Suburbs;                                !- Terrain

OS:ClimateZones,
  {bf9268a5-3a0e-4131-8758-d7db6ed505fe}, !- Handle
  ,                                       !- Active Institution
  ,                                       !- Active Year
  ,                                       !- Climate Zone Institution Name 1
  ,                                       !- Climate Zone Document Name 1
  ,                                       !- Climate Zone Document Year 1
  ,                                       !- Climate Zone Value 1
  Building America,                       !- Climate Zone Institution Name 2
  ,                                       !- Climate Zone Document Name 2
  0,                                      !- Climate Zone Document Year 2
  Cold;                                   !- Climate Zone Value 2

OS:Site:WaterMainsTemperature,
  {2d6137de-91e5-4955-90bd-cd513dbcf006}, !- Handle
  Correlation,                            !- Calculation Method
  ,                                       !- Temperature Schedule Name
  10.8753424657535,                       !- Annual Average Outdoor Air Temperature {C}
  23.1524007936508;                       !- Maximum Difference In Monthly Average Outdoor Air Temperatures {deltaC}

OS:RunPeriodControl:DaylightSavingTime,
  {dcc2eaad-b335-4f5c-ad5f-e9ac8a6c0572}, !- Handle
  3/12,                                   !- Start Date
  11/5;                                   !- End Date

OS:Site:GroundTemperature:Deep,
  {8d4f8b26-4bc2-4cf6-b05c-9cc8c75d4cf5}, !- Handle
  10.8753424657535,                       !- January Deep Ground Temperature {C}
  10.8753424657535,                       !- February Deep Ground Temperature {C}
  10.8753424657535,                       !- March Deep Ground Temperature {C}
  10.8753424657535,                       !- April Deep Ground Temperature {C}
  10.8753424657535,                       !- May Deep Ground Temperature {C}
  10.8753424657535,                       !- June Deep Ground Temperature {C}
  10.8753424657535,                       !- July Deep Ground Temperature {C}
  10.8753424657535,                       !- August Deep Ground Temperature {C}
  10.8753424657535,                       !- September Deep Ground Temperature {C}
  10.8753424657535,                       !- October Deep Ground Temperature {C}
  10.8753424657535,                       !- November Deep Ground Temperature {C}
  10.8753424657535;                       !- December Deep Ground Temperature {C}

OS:Building,
  {84515992-bb2b-4fac-8b0c-ad32045f830a}, !- Handle
  Building 1,                             !- Name
  ,                                       !- Building Sector Type
  202.5,                                  !- North Axis {deg}
  ,                                       !- Nominal Floor to Floor Height {m}
  ,                                       !- Space Type Name
  ,                                       !- Default Construction Set Name
  ,                                       !- Default Schedule Set Name
  1,                                      !- Standards Number of Stories
  1,                                      !- Standards Number of Above Ground Stories
  ,                                       !- Standards Template
  singlefamilydetached,                   !- Standards Building Type
  1;                                      !- Standards Number of Living Units

OS:AdditionalProperties,
  {c233f0ec-60a9-4264-baff-b40a005c7590}, !- Handle
  {84515992-bb2b-4fac-8b0c-ad32045f830a}, !- Object Name
  Total Units Modeled,                    !- Feature Name 1
  Integer,                                !- Feature Data Type 1
  1;                                      !- Feature Value 1

OS:ThermalZone,
  {cca21f11-589b-4a2e-a1ea-9a62a7d52645}, !- Handle
  living zone,                            !- Name
  ,                                       !- Multiplier
  ,                                       !- Ceiling Height {m}
  ,                                       !- Volume {m3}
  ,                                       !- Floor Area {m2}
  ,                                       !- Zone Inside Convection Algorithm
  ,                                       !- Zone Outside Convection Algorithm
  ,                                       !- Zone Conditioning Equipment List Name
  {d9954371-42b0-4962-93cc-864f8a785884}, !- Zone Air Inlet Port List
  {884b39d3-b9d6-4757-abb1-24ff74bb6469}, !- Zone Air Exhaust Port List
  {7304eb2c-71fb-4f86-a1dc-bf4e935f75fd}, !- Zone Air Node Name
  {bbd160bd-56b3-4797-8c87-4f6e14660c6d}, !- Zone Return Air Port List
  ,                                       !- Primary Daylighting Control Name
  ,                                       !- Fraction of Zone Controlled by Primary Daylighting Control
  ,                                       !- Secondary Daylighting Control Name
  ,                                       !- Fraction of Zone Controlled by Secondary Daylighting Control
  ,                                       !- Illuminance Map Name
  ,                                       !- Group Rendering Name
  {60b7d2e3-6760-450e-b687-7a54110c4db1}, !- Thermostat Name
  No;                                     !- Use Ideal Air Loads

OS:Node,
  {08ec2651-4451-4a19-8fa5-5b97ed75ca9d}, !- Handle
  Node 1,                                 !- Name
  {7304eb2c-71fb-4f86-a1dc-bf4e935f75fd}, !- Inlet Port
  ;                                       !- Outlet Port

OS:Connection,
  {7304eb2c-71fb-4f86-a1dc-bf4e935f75fd}, !- Handle
  {886dae28-689a-49b0-b0d6-b553fca1a9f0}, !- Name
  {cca21f11-589b-4a2e-a1ea-9a62a7d52645}, !- Source Object
  11,                                     !- Outlet Port
  {08ec2651-4451-4a19-8fa5-5b97ed75ca9d}, !- Target Object
  2;                                      !- Inlet Port

OS:PortList,
  {d9954371-42b0-4962-93cc-864f8a785884}, !- Handle
  {452370a1-a580-41b7-b94d-a0f3858c1805}, !- Name
  {cca21f11-589b-4a2e-a1ea-9a62a7d52645}, !- HVAC Component
  {4fdaa093-1274-496b-b8bc-a22b42d60c20}, !- Port 1
  {29dd90cf-3aae-486c-ab98-f1d32c464abd}; !- Port 2

OS:PortList,
  {884b39d3-b9d6-4757-abb1-24ff74bb6469}, !- Handle
  {9328757e-18d7-4bd9-a5be-fac8347b0dba}, !- Name
  {cca21f11-589b-4a2e-a1ea-9a62a7d52645}; !- HVAC Component

OS:PortList,
  {bbd160bd-56b3-4797-8c87-4f6e14660c6d}, !- Handle
  {3066f8e0-81b8-44d2-a1c6-62b9e4553c72}, !- Name
  {cca21f11-589b-4a2e-a1ea-9a62a7d52645}, !- HVAC Component
  {2f5c7744-6a54-4b70-afa7-6ed2862d626d}, !- Port 1
  {3c2d155c-8a1f-4c89-886e-a9a26d45e032}; !- Port 2

OS:Sizing:Zone,
  {a42cbe5a-48cd-4774-aebd-e8560d6383b6}, !- Handle
  {cca21f11-589b-4a2e-a1ea-9a62a7d52645}, !- Zone or ZoneList Name
  SupplyAirTemperature,                   !- Zone Cooling Design Supply Air Temperature Input Method
  14,                                     !- Zone Cooling Design Supply Air Temperature {C}
  11.11,                                  !- Zone Cooling Design Supply Air Temperature Difference {deltaC}
  SupplyAirTemperature,                   !- Zone Heating Design Supply Air Temperature Input Method
  40,                                     !- Zone Heating Design Supply Air Temperature {C}
  11.11,                                  !- Zone Heating Design Supply Air Temperature Difference {deltaC}
  0.0085,                                 !- Zone Cooling Design Supply Air Humidity Ratio {kg-H2O/kg-air}
  0.008,                                  !- Zone Heating Design Supply Air Humidity Ratio {kg-H2O/kg-air}
  ,                                       !- Zone Heating Sizing Factor
  ,                                       !- Zone Cooling Sizing Factor
  DesignDay,                              !- Cooling Design Air Flow Method
  ,                                       !- Cooling Design Air Flow Rate {m3/s}
  ,                                       !- Cooling Minimum Air Flow per Zone Floor Area {m3/s-m2}
  ,                                       !- Cooling Minimum Air Flow {m3/s}
  ,                                       !- Cooling Minimum Air Flow Fraction
  DesignDay,                              !- Heating Design Air Flow Method
  ,                                       !- Heating Design Air Flow Rate {m3/s}
  ,                                       !- Heating Maximum Air Flow per Zone Floor Area {m3/s-m2}
  ,                                       !- Heating Maximum Air Flow {m3/s}
  ,                                       !- Heating Maximum Air Flow Fraction
  ,                                       !- Design Zone Air Distribution Effectiveness in Cooling Mode
  ,                                       !- Design Zone Air Distribution Effectiveness in Heating Mode
  No,                                     !- Account for Dedicated Outdoor Air System
  NeutralSupplyAir,                       !- Dedicated Outdoor Air System Control Strategy
  autosize,                               !- Dedicated Outdoor Air Low Setpoint Temperature for Design {C}
  autosize;                               !- Dedicated Outdoor Air High Setpoint Temperature for Design {C}

OS:ZoneHVAC:EquipmentList,
  {9183e95b-51f2-449a-afde-24c2b6fa6877}, !- Handle
  Zone HVAC Equipment List 1,             !- Name
  {cca21f11-589b-4a2e-a1ea-9a62a7d52645}, !- Thermal Zone
  SequentialLoad,                         !- Load Distribution Scheme
  {16bff93c-401d-43a2-b839-89128fa2dd29}, !- Zone Equipment 1
  1,                                      !- Zone Equipment Cooling Sequence 1
  1,                                      !- Zone Equipment Heating or No-Load Sequence 1
  ,                                       !- Zone Equipment Sequential Cooling Fraction Schedule Name 1
  ,                                       !- Zone Equipment Sequential Heating Fraction Schedule Name 1
  {f7f07862-424d-4981-a28e-f1430161c43c}, !- Zone Equipment 2
  2,                                      !- Zone Equipment Cooling Sequence 2
  2,                                      !- Zone Equipment Heating or No-Load Sequence 2
  ,                                       !- Zone Equipment Sequential Cooling Fraction Schedule Name 2
  ;                                       !- Zone Equipment Sequential Heating Fraction Schedule Name 2

OS:Space,
  {a3ae0e09-88bf-4049-bbef-92b3222dc869}, !- Handle
  living space,                           !- Name
  {527a403e-b378-4490-8edd-b13dfac3628e}, !- Space Type Name
  ,                                       !- Default Construction Set Name
  ,                                       !- Default Schedule Set Name
  -0,                                     !- Direction of Relative North {deg}
  0,                                      !- X Origin {m}
  0,                                      !- Y Origin {m}
  0,                                      !- Z Origin {m}
  ,                                       !- Building Story Name
  {cca21f11-589b-4a2e-a1ea-9a62a7d52645}, !- Thermal Zone Name
  ,                                       !- Part of Total Floor Area
  ,                                       !- Design Specification Outdoor Air Object Name
  {dbfae82f-86c4-4de8-a2ff-ee23ea91f92e}; !- Building Unit Name

OS:Surface,
  {009b39f9-20b6-4358-9687-21b6b8af30c2}, !- Handle
  Surface 1,                              !- Name
  Floor,                                  !- Surface Type
  {ba8c6d93-db82-43d9-a328-9de9b5edd185}, !- Construction Name
  {a3ae0e09-88bf-4049-bbef-92b3222dc869}, !- Space Name
  Surface,                                !- Outside Boundary Condition
  {02abe428-3949-44a1-9327-4cd9e8c46f2d}, !- Outside Boundary Condition Object
  NoSun,                                  !- Sun Exposure
  NoWind,                                 !- Wind Exposure
  ,                                       !- View Factor to Ground
  ,                                       !- Number of Vertices
  0, 0, 0,                                !- X,Y,Z Vertex 1 {m}
  0, 12.4434078933385, 0,                 !- X,Y,Z Vertex 2 {m}
  22.3981342080094, 12.4434078933385, 0,  !- X,Y,Z Vertex 3 {m}
  22.3981342080094, 0, 0;                 !- X,Y,Z Vertex 4 {m}

OS:Surface,
  {ba73efad-36ce-4207-b2a6-b3d0021e1b98}, !- Handle
  Surface 2,                              !- Name
  Wall,                                   !- Surface Type
  {357d3ae3-08cd-4366-ae49-1f3ce1cd92b4}, !- Construction Name
  {a3ae0e09-88bf-4049-bbef-92b3222dc869}, !- Space Name
  Outdoors,                               !- Outside Boundary Condition
  ,                                       !- Outside Boundary Condition Object
  SunExposed,                             !- Sun Exposure
  WindExposed,                            !- Wind Exposure
  ,                                       !- View Factor to Ground
  ,                                       !- Number of Vertices
  0, 12.4434078933385, 2.4384,            !- X,Y,Z Vertex 1 {m}
  0, 12.4434078933385, 0,                 !- X,Y,Z Vertex 2 {m}
  0, 0, 0,                                !- X,Y,Z Vertex 3 {m}
  0, 0, 2.4384;                           !- X,Y,Z Vertex 4 {m}

OS:Surface,
  {87f45809-5770-449c-b452-fe466ee39515}, !- Handle
  Surface 3,                              !- Name
  Wall,                                   !- Surface Type
  {357d3ae3-08cd-4366-ae49-1f3ce1cd92b4}, !- Construction Name
  {a3ae0e09-88bf-4049-bbef-92b3222dc869}, !- Space Name
  Outdoors,                               !- Outside Boundary Condition
  ,                                       !- Outside Boundary Condition Object
  SunExposed,                             !- Sun Exposure
  WindExposed,                            !- Wind Exposure
  ,                                       !- View Factor to Ground
  ,                                       !- Number of Vertices
  22.3981342080094, 12.4434078933385, 2.4384, !- X,Y,Z Vertex 1 {m}
  22.3981342080094, 12.4434078933385, 0,  !- X,Y,Z Vertex 2 {m}
  0, 12.4434078933385, 0,                 !- X,Y,Z Vertex 3 {m}
  0, 12.4434078933385, 2.4384;            !- X,Y,Z Vertex 4 {m}

OS:Surface,
  {58f1f153-3005-427f-bcfb-37bdda16b16a}, !- Handle
  Surface 4,                              !- Name
  Wall,                                   !- Surface Type
  {357d3ae3-08cd-4366-ae49-1f3ce1cd92b4}, !- Construction Name
  {a3ae0e09-88bf-4049-bbef-92b3222dc869}, !- Space Name
  Outdoors,                               !- Outside Boundary Condition
  ,                                       !- Outside Boundary Condition Object
  SunExposed,                             !- Sun Exposure
  WindExposed,                            !- Wind Exposure
  ,                                       !- View Factor to Ground
  ,                                       !- Number of Vertices
  22.3981342080094, 0, 2.4384,            !- X,Y,Z Vertex 1 {m}
  22.3981342080094, 0, 0,                 !- X,Y,Z Vertex 2 {m}
  22.3981342080094, 12.4434078933385, 0,  !- X,Y,Z Vertex 3 {m}
  22.3981342080094, 12.4434078933385, 2.4384; !- X,Y,Z Vertex 4 {m}

OS:Surface,
  {676c74d6-fde3-44d5-a4b2-f3ab641fab06}, !- Handle
  Surface 5,                              !- Name
  Wall,                                   !- Surface Type
  {357d3ae3-08cd-4366-ae49-1f3ce1cd92b4}, !- Construction Name
  {a3ae0e09-88bf-4049-bbef-92b3222dc869}, !- Space Name
  Outdoors,                               !- Outside Boundary Condition
  ,                                       !- Outside Boundary Condition Object
  SunExposed,                             !- Sun Exposure
  WindExposed,                            !- Wind Exposure
  ,                                       !- View Factor to Ground
  ,                                       !- Number of Vertices
  22.3981342080094, 0, 0,                 !- X,Y,Z Vertex 1 {m}
  22.3981342080094, 0, 2.4384,            !- X,Y,Z Vertex 2 {m}
  1.91951428571429, 0, 2.4384,            !- X,Y,Z Vertex 3 {m}
  1.91951428571429, 0, 0;                 !- X,Y,Z Vertex 4 {m}

OS:Surface,
  {76cdc8f5-bfc9-46de-aaad-857a43b391cb}, !- Handle
  Surface 6,                              !- Name
  RoofCeiling,                            !- Surface Type
  {a5d09099-544d-419b-a3b5-2bd5cc908c42}, !- Construction Name
  {a3ae0e09-88bf-4049-bbef-92b3222dc869}, !- Space Name
  Surface,                                !- Outside Boundary Condition
  {d39b85d3-0705-4ff3-b7d5-38727c10ad9b}, !- Outside Boundary Condition Object
  NoSun,                                  !- Sun Exposure
  NoWind,                                 !- Wind Exposure
  ,                                       !- View Factor to Ground
  ,                                       !- Number of Vertices
  22.3981342080094, 0, 2.4384,            !- X,Y,Z Vertex 1 {m}
  22.3981342080094, 12.4434078933385, 2.4384, !- X,Y,Z Vertex 2 {m}
  0, 12.4434078933385, 2.4384,            !- X,Y,Z Vertex 3 {m}
  0, 0, 2.4384;                           !- X,Y,Z Vertex 4 {m}

OS:SpaceType,
  {527a403e-b378-4490-8edd-b13dfac3628e}, !- Handle
  Space Type 1,                           !- Name
  ,                                       !- Default Construction Set Name
  ,                                       !- Default Schedule Set Name
  ,                                       !- Group Rendering Name
  ,                                       !- Design Specification Outdoor Air Object Name
  ,                                       !- Standards Template
  ,                                       !- Standards Building Type
  living;                                 !- Standards Space Type

OS:Surface,
  {d39b85d3-0705-4ff3-b7d5-38727c10ad9b}, !- Handle
  Surface 7,                              !- Name
  Floor,                                  !- Surface Type
  {6d93cf7d-8368-4cbf-808c-1eff484ecd4d}, !- Construction Name
  {c80c831b-73ff-4d20-9cfb-8928744f787c}, !- Space Name
  Surface,                                !- Outside Boundary Condition
  {76cdc8f5-bfc9-46de-aaad-857a43b391cb}, !- Outside Boundary Condition Object
  NoSun,                                  !- Sun Exposure
  NoWind,                                 !- Wind Exposure
  ,                                       !- View Factor to Ground
  ,                                       !- Number of Vertices
  0, 12.4434078933385, 0,                 !- X,Y,Z Vertex 1 {m}
  22.3981342080094, 12.4434078933385, 0,  !- X,Y,Z Vertex 2 {m}
  22.3981342080094, 0, 0,                 !- X,Y,Z Vertex 3 {m}
  0, 0, 0;                                !- X,Y,Z Vertex 4 {m}

OS:Surface,
  {d5a759ac-876f-4bce-9807-57bf9542c345}, !- Handle
  Surface 8,                              !- Name
  RoofCeiling,                            !- Surface Type
  {8c8ea348-881e-46b7-a389-f1218e37a722}, !- Construction Name
  {c80c831b-73ff-4d20-9cfb-8928744f787c}, !- Space Name