!- NOTE: Auto-generated from /test/osw_files/SFD_1story_FB_UA_GRG_MSHP_FuelTanklessWH.osw

OS:Version,
  {dbac6f75-e871-446b-a95a-7856c8cfb371}, !- Handle
  2.8.0;                                  !- Version Identifier

OS:Building,
  {9fe57dcc-f7ce-403a-bbd0-258c227bdcb3}, !- Handle
  Building 1,                             !- Name
  ,                                       !- Building Sector Type
  270,                                    !- North Axis {deg}
  ,                                       !- Nominal Floor to Floor Height {m}
  ,                                       !- Space Type Name
  ,                                       !- Default Construction Set Name
  ,                                       !- Default Schedule Set Name
  2,                                      !- Standards Number of Stories
  1,                                      !- Standards Number of Above Ground Stories
  ,                                       !- Standards Template
  singlefamilydetached,                   !- Standards Building Type
  1;                                      !- Standards Number of Living Units

OS:Facility,
  {035a6986-73fa-4643-99a0-4f99f47c5b74}; !- Handle

OS:Site,
  {e1ef9ba0-9b39-442b-a149-07b50afc2fb9}, !- Handle
  Denver Intl Ap_CO_USA,                  !- Name
  39.83,                                  !- Latitude {deg}
  -104.65,                                !- Longitude {deg}
  -7,                                     !- Time Zone {hr}
  1650,                                   !- Elevation {m}
  Suburbs;                                !- Terrain

OS:SimulationControl,
  {9a3ae605-c3b3-445e-aead-d520179cd67d}, !- Handle
  ,                                       !- Do Zone Sizing Calculation
  ,                                       !- Do System Sizing Calculation
  ,                                       !- Do Plant Sizing Calculation
  No;                                     !- Run Simulation for Sizing Periods

OS:Sizing:Parameters,
  {85c68e0b-08bf-47c5-b33c-f5e8d1995978}, !- Handle
  1.25,                                   !- Heating Sizing Factor
  1.15;                                   !- Cooling Sizing Factor

OS:Timestep,
  {0342278f-19fc-49c7-83af-60d485285fef}, !- Handle
  6;                                      !- Number of Timesteps per Hour

OS:ShadowCalculation,
  {a89c3a2a-ec5d-4fcc-bc26-4b97f37fec12}, !- Handle
  20,                                     !- Calculation Frequency
  200;                                    !- Maximum Figures in Shadow Overlap Calculations

OS:HeatBalanceAlgorithm,
  {d13520a3-4614-480f-97f9-14ae6ddf08d5}, !- Handle
  ConductionTransferFunction,             !- Algorithm
  200;                                    !- Surface Temperature Upper Limit {C}

OS:RunPeriod,
  {db576578-60ac-4ea2-a733-501bb5f9b08b}, !- Handle
  Run Period 1,                           !- Name
  1,                                      !- Begin Month
  1,                                      !- Begin Day of Month
  12,                                     !- End Month
  31,                                     !- End Day of Month
  ,                                       !- Use Weather File Holidays and Special Days
  ,                                       !- Use Weather File Daylight Saving Period
  ,                                       !- Apply Weekend Holiday Rule
  ,                                       !- Use Weather File Rain Indicators
  ,                                       !- Use Weather File Snow Indicators
  ;                                       !- Number of Times Runperiod to be Repeated

OS:LifeCycleCost:Parameters,
  {6d397a2e-36d6-44b6-8605-10b6ca6a0e1d}, !- Handle
  ,                                       !- Analysis Type
  ,                                       !- Discounting Convention
  ,                                       !- Inflation Approach
  ,                                       !- Real Discount Rate
  ,                                       !- Nominal Discount Rate
  ,                                       !- Inflation
  ,                                       !- Base Date Month
  ,                                       !- Base Date Year
  ,                                       !- Service Date Month
  ,                                       !- Service Date Year
  ;                                       !- Length of Study Period in Years

OS:SurfaceConvectionAlgorithm:Outside,
  {8b2e8ea4-995b-4069-ad52-19df2604f636}, !- Handle
  DOE-2;                                  !- Algorithm

OS:SurfaceConvectionAlgorithm:Inside,
  {442ace07-94a8-4f48-9640-b4fd58adbb2e}, !- Handle
  TARP;                                   !- Algorithm

OS:ZoneCapacitanceMultiplier:ResearchSpecial,
  {b34a32d3-1409-49c4-bb2c-b5c17c582bda}, !- Handle
  ,                                       !- Temperature Capacity Multiplier
  15,                                     !- Humidity Capacity Multiplier
  ;                                       !- Carbon Dioxide Capacity Multiplier

OS:WeatherFile,
  {28319251-1e7e-41dc-9746-4f1b6aad6982}, !- Handle
  Denver Intl Ap,                         !- City
  CO,                                     !- State Province Region
  USA,                                    !- Country
  TMY3,                                   !- Data Source
  725650,                                 !- WMO Number
  39.83,                                  !- Latitude {deg}
  -104.65,                                !- Longitude {deg}
  -7,                                     !- Time Zone {hr}
  1650,                                   !- Elevation {m}
  file:../weather/USA_CO_Denver.Intl.AP.725650_TMY3.epw, !- Url
  E23378AA;                               !- Checksum

OS:AdditionalProperties,
  {f49755bd-c165-4fc5-8dd3-3f7842d4476a}, !- Handle
  {28319251-1e7e-41dc-9746-4f1b6aad6982}, !- Object Name
  EPWHeaderCity,                          !- Feature Name 1
  String,                                 !- Feature Data Type 1
  Denver Intl Ap,                         !- Feature Value 1
  EPWHeaderState,                         !- Feature Name 2
  String,                                 !- Feature Data Type 2
  CO,                                     !- Feature Value 2
  EPWHeaderCountry,                       !- Feature Name 3
  String,                                 !- Feature Data Type 3
  USA,                                    !- Feature Value 3
  EPWHeaderDataSource,                    !- Feature Name 4
  String,                                 !- Feature Data Type 4
  TMY3,                                   !- Feature Value 4
  EPWHeaderStation,                       !- Feature Name 5
  String,                                 !- Feature Data Type 5
  725650,                                 !- Feature Value 5
  EPWHeaderLatitude,                      !- Feature Name 6
  Double,                                 !- Feature Data Type 6
  39.829999999999998,                     !- Feature Value 6
  EPWHeaderLongitude,                     !- Feature Name 7
  Double,                                 !- Feature Data Type 7
  -104.65000000000001,                    !- Feature Value 7
  EPWHeaderTimezone,                      !- Feature Name 8
  Double,                                 !- Feature Data Type 8
  -7,                                     !- Feature Value 8
  EPWHeaderAltitude,                      !- Feature Name 9
  Double,                                 !- Feature Data Type 9
  5413.3858267716532,                     !- Feature Value 9
  EPWHeaderLocalPressure,                 !- Feature Name 10
  Double,                                 !- Feature Data Type 10
  0.81937567683596546,                    !- Feature Value 10
  EPWHeaderRecordsPerHour,                !- Feature Name 11
  Double,                                 !- Feature Data Type 11
  0,                                      !- Feature Value 11
  EPWDataAnnualAvgDrybulb,                !- Feature Name 12
  Double,                                 !- Feature Data Type 12
  51.575616438356228,                     !- Feature Value 12
  EPWDataAnnualMinDrybulb,                !- Feature Name 13
  Double,                                 !- Feature Data Type 13
  -2.9200000000000017,                    !- Feature Value 13
  EPWDataAnnualMaxDrybulb,                !- Feature Name 14
  Double,                                 !- Feature Data Type 14
  104,                                    !- Feature Value 14
  EPWDataCDD50F,                          !- Feature Name 15
  Double,                                 !- Feature Data Type 15
  3072.2925000000005,                     !- Feature Value 15
  EPWDataCDD65F,                          !- Feature Name 16
  Double,                                 !- Feature Data Type 16
  883.62000000000035,                     !- Feature Value 16
  EPWDataHDD50F,                          !- Feature Name 17
  Double,                                 !- Feature Data Type 17
  2497.1925000000001,                     !- Feature Value 17
  EPWDataHDD65F,                          !- Feature Name 18
  Double,                                 !- Feature Data Type 18
  5783.5200000000013,                     !- Feature Value 18
  EPWDataAnnualAvgWindspeed,              !- Feature Name 19
  Double,                                 !- Feature Data Type 19
  3.9165296803649667,                     !- Feature Value 19
  EPWDataMonthlyAvgDrybulbs,              !- Feature Name 20
  String,                                 !- Feature Data Type 20
  33.4191935483871&#4431.90142857142857&#4443.02620967741937&#4442.48624999999999&#4459.877741935483854&#4473.57574999999997&#4472.07975806451608&#4472.70008064516134&#4466.49200000000006&#4450.079112903225806&#4437.218250000000005&#4434.582177419354835, !- Feature Value 20
  EPWDataGroundMonthlyTemps,              !- Feature Name 21
  String,                                 !- Feature Data Type 21
  44.08306285945173&#4440.89570904991865&#4440.64045432632048&#4442.153016571250646&#4448.225111118704206&#4454.268919273837525&#4459.508577937551024&#4462.82777283423508&#4463.10975667174995&#4460.41014950381947&#4455.304105212311526&#4449.445696474514364, !- Feature Value 21
  EPWDataWSF,                             !- Feature Name 22
  Double,                                 !- Feature Data Type 22
  0.58999999999999997,                    !- Feature Value 22
  EPWDataMonthlyAvgDailyHighDrybulbs,     !- Feature Name 23
  String,                                 !- Feature Data Type 23
  47.41032258064516&#4446.58642857142857&#4455.15032258064517&#4453.708&#4472.80193548387098&#4488.67600000000002&#4486.1858064516129&#4485.87225806451613&#4482.082&#4463.18064516129033&#4448.73400000000001&#4448.87935483870968, !- Feature Value 23
  EPWDataMonthlyAvgDailyLowDrybulbs,      !- Feature Name 24
  String,                                 !- Feature Data Type 24
  19.347741935483874&#4419.856428571428573&#4430.316129032258065&#4431.112&#4447.41612903225806&#4457.901999999999994&#4459.063870967741934&#4460.956774193548384&#4452.352000000000004&#4438.41612903225806&#4427.002000000000002&#4423.02903225806451, !- Feature Value 24
  EPWDesignHeatingDrybulb,                !- Feature Name 25
  Double,                                 !- Feature Data Type 25
  12.02,                                  !- Feature Value 25
  EPWDesignHeatingWindspeed,              !- Feature Name 26
  Double,                                 !- Feature Data Type 26
  2.8062500000000004,                     !- Feature Value 26
  EPWDesignCoolingDrybulb,                !- Feature Name 27
  Double,                                 !- Feature Data Type 27
  91.939999999999998,                     !- Feature Value 27
  EPWDesignCoolingWetbulb,                !- Feature Name 28
  Double,                                 !- Feature Data Type 28
  59.95131430195849,                      !- Feature Value 28
  EPWDesignCoolingHumidityRatio,          !- Feature Name 29
  Double,                                 !- Feature Data Type 29
  0.0059161086834698092,                  !- Feature Value 29
  EPWDesignCoolingWindspeed,              !- Feature Name 30
  Double,                                 !- Feature Data Type 30
  3.7999999999999989,                     !- Feature Value 30
  EPWDesignDailyTemperatureRange,         !- Feature Name 31
  Double,                                 !- Feature Data Type 31
  24.915483870967748,                     !- Feature Value 31
  EPWDesignDehumidDrybulb,                !- Feature Name 32
  Double,                                 !- Feature Data Type 32
  67.996785714285721,                     !- Feature Value 32
  EPWDesignDehumidHumidityRatio,          !- Feature Name 33
  Double,                                 !- Feature Data Type 33
  0.012133744170488724,                   !- Feature Value 33
  EPWDesignCoolingDirectNormal,           !- Feature Name 34
  Double,                                 !- Feature Data Type 34
  985,                                    !- Feature Value 34
  EPWDesignCoolingDiffuseHorizontal,      !- Feature Name 35
  Double,                                 !- Feature Data Type 35
  84;                                     !- Feature Value 35

OS:YearDescription,
  {7ba0cb2a-a5bc-4036-818a-3f5e16e5411c}, !- Handle
  ,                                       !- Calendar Year
  Monday;                                 !- Day of Week for Start Day

OS:ClimateZones,
  {f906b7ba-9b68-4334-8931-22a18cdf3a85}, !- Handle
  ,                                       !- Active Institution
  ,                                       !- Active Year
  ,                                       !- Climate Zone Institution Name 1
  ,                                       !- Climate Zone Document Name 1
  ,                                       !- Climate Zone Document Year 1
  ,                                       !- Climate Zone Value 1
  Building America,                       !- Climate Zone Institution Name 2
  ,                                       !- Climate Zone Document Name 2
  0,                                      !- Climate Zone Document Year 2
  Cold;                                   !- Climate Zone Value 2

OS:Site:WaterMainsTemperature,
  {cd3dc151-fc9d-44b1-bd6e-eefe5bd095ef}, !- Handle
  Correlation,                            !- Calculation Method
  ,                                       !- Temperature Schedule Name
  10.8753424657535,                       !- Annual Average Outdoor Air Temperature {C}
  23.1524007936508;                       !- Maximum Difference In Monthly Average Outdoor Air Temperatures {deltaC}

OS:RunPeriodControl:DaylightSavingTime,
  {6731f7cc-e3b8-4c53-9d1a-5bd17291bd5c}, !- Handle
  4/7,                                    !- Start Date
  10/26;                                  !- End Date

OS:Site:GroundTemperature:Deep,
  {687f4b4b-9c70-4676-911f-56d598ada8c1}, !- Handle
  10.8753424657535,                       !- January Deep Ground Temperature {C}
  10.8753424657535,                       !- February Deep Ground Temperature {C}
  10.8753424657535,                       !- March Deep Ground Temperature {C}
  10.8753424657535,                       !- April Deep Ground Temperature {C}
  10.8753424657535,                       !- May Deep Ground Temperature {C}
  10.8753424657535,                       !- June Deep Ground Temperature {C}
  10.8753424657535,                       !- July Deep Ground Temperature {C}
  10.8753424657535,                       !- August Deep Ground Temperature {C}
  10.8753424657535,                       !- September Deep Ground Temperature {C}
  10.8753424657535,                       !- October Deep Ground Temperature {C}
  10.8753424657535,                       !- November Deep Ground Temperature {C}
  10.8753424657535;                       !- December Deep Ground Temperature {C}

OS:ThermalZone,
  {acb6b04d-f128-407a-94a7-3e8a0965a3f0}, !- Handle
  living zone,                            !- Name
  ,                                       !- Multiplier
  ,                                       !- Ceiling Height {m}
  ,                                       !- Volume {m3}
  ,                                       !- Floor Area {m2}
  ,                                       !- Zone Inside Convection Algorithm
  ,                                       !- Zone Outside Convection Algorithm
  ,                                       !- Zone Conditioning Equipment List Name
  {97c1a8fb-3d50-4114-9754-41eb896cdcd1}, !- Zone Air Inlet Port List
  {1e85bf00-261a-4e85-9647-1595d8e09bab}, !- Zone Air Exhaust Port List
  {b07f19e5-841c-4be0-8017-6a098e28287b}, !- Zone Air Node Name
  {753829a1-2799-4ec1-98b6-967208385c03}, !- Zone Return Air Port List
  ,                                       !- Primary Daylighting Control Name
  ,                                       !- Fraction of Zone Controlled by Primary Daylighting Control
  ,                                       !- Secondary Daylighting Control Name
  ,                                       !- Fraction of Zone Controlled by Secondary Daylighting Control
  ,                                       !- Illuminance Map Name
  ,                                       !- Group Rendering Name
  {e2e267b8-c1cc-43a9-98e0-b9561484eaae}, !- Thermostat Name
  No;                                     !- Use Ideal Air Loads

OS:Node,
  {77aefe13-2f05-4075-93df-8dff5a6886a8}, !- Handle
  Node 1,                                 !- Name
  {b07f19e5-841c-4be0-8017-6a098e28287b}, !- Inlet Port
  ;                                       !- Outlet Port

OS:Connection,
  {b07f19e5-841c-4be0-8017-6a098e28287b}, !- Handle
  {b01941f8-d1f4-4f7d-867d-74e51fceacf8}, !- Name
  {acb6b04d-f128-407a-94a7-3e8a0965a3f0}, !- Source Object
  11,                                     !- Outlet Port
  {77aefe13-2f05-4075-93df-8dff5a6886a8}, !- Target Object
  2;                                      !- Inlet Port

OS:PortList,
  {97c1a8fb-3d50-4114-9754-41eb896cdcd1}, !- Handle
  {e9656fb3-760c-454f-832d-bc94b9707974}, !- Name
  {acb6b04d-f128-407a-94a7-3e8a0965a3f0}, !- HVAC Component
  {804ea013-1059-4ee0-8162-6615c799cf7f}, !- Port 1
  {6336cd20-e974-4f1f-80e4-ca94c7e7f535}; !- Port 2

OS:PortList,
  {1e85bf00-261a-4e85-9647-1595d8e09bab}, !- Handle
  {9636af0f-30fd-4c44-93d8-811a51cd7c2c}, !- Name
  {acb6b04d-f128-407a-94a7-3e8a0965a3f0}; !- HVAC Component

OS:PortList,
  {753829a1-2799-4ec1-98b6-967208385c03}, !- Handle
  {a8591d09-2b3f-4c27-a96f-8fbe1dcece53}, !- Name
  {acb6b04d-f128-407a-94a7-3e8a0965a3f0}, !- HVAC Component
  {68e8d2d2-40c7-426d-9d38-655af731ee17}, !- Port 1
  {6578c1f5-a2ea-4415-96fb-614d2039d923}; !- Port 2

OS:Sizing:Zone,
  {695ccc14-bded-4bda-b11a-b361880401ea}, !- Handle
  {acb6b04d-f128-407a-94a7-3e8a0965a3f0}, !- Zone or ZoneList Name
  SupplyAirTemperature,                   !- Zone Cooling Design Supply Air Temperature Input Method
  14,                                     !- Zone Cooling Design Supply Air Temperature {C}
  11.11,                                  !- Zone Cooling Design Supply Air Temperature Difference {deltaC}
  SupplyAirTemperature,                   !- Zone Heating Design Supply Air Temperature Input Method
  40,                                     !- Zone Heating Design Supply Air Temperature {C}
  11.11,                                  !- Zone Heating Design Supply Air Temperature Difference {deltaC}
  0.0085,                                 !- Zone Cooling Design Supply Air Humidity Ratio {kg-H2O/kg-air}
  0.008,                                  !- Zone Heating Design Supply Air Humidity Ratio {kg-H2O/kg-air}
  ,                                       !- Zone Heating Sizing Factor
  ,                                       !- Zone Cooling Sizing Factor
  DesignDay,                              !- Cooling Design Air Flow Method
  ,                                       !- Cooling Design Air Flow Rate {m3/s}
  ,                                       !- Cooling Minimum Air Flow per Zone Floor Area {m3/s-m2}
  ,                                       !- Cooling Minimum Air Flow {m3/s}
  ,                                       !- Cooling Minimum Air Flow Fraction
  DesignDay,                              !- Heating Design Air Flow Method
  ,                                       !- Heating Design Air Flow Rate {m3/s}
  ,                                       !- Heating Maximum Air Flow per Zone Floor Area {m3/s-m2}
  ,                                       !- Heating Maximum Air Flow {m3/s}
  ,                                       !- Heating Maximum Air Flow Fraction
  ,                                       !- Design Zone Air Distribution Effectiveness in Cooling Mode
  ,                                       !- Design Zone Air Distribution Effectiveness in Heating Mode
  No,                                     !- Account for Dedicated Outdoor Air System
  NeutralSupplyAir,                       !- Dedicated Outdoor Air System Control Strategy
  autosize,                               !- Dedicated Outdoor Air Low Setpoint Temperature for Design {C}
  autosize;                               !- Dedicated Outdoor Air High Setpoint Temperature for Design {C}

OS:ZoneHVAC:EquipmentList,
  {6ee20f75-f3af-43d9-93aa-4071bd00fe34}, !- Handle
  Zone HVAC Equipment List 1,             !- Name
  {acb6b04d-f128-407a-94a7-3e8a0965a3f0}, !- Thermal Zone
  SequentialLoad,                         !- Load Distribution Scheme
  {dc1ea28a-3447-4157-b1da-511a387f3486}, !- Zone Equipment 1
  1,                                      !- Zone Equipment Cooling Sequence 1
  1,                                      !- Zone Equipment Heating or No-Load Sequence 1
  ,                                       !- Zone Equipment Sequential Cooling Fraction 1
  ,                                       !- Zone Equipment Sequential Heating Fraction 1
  {70f5ce1c-a8db-4791-b3cd-76f37e58b54e}, !- Zone Equipment 2
  2,                                      !- Zone Equipment Cooling Sequence 2
  2,                                      !- Zone Equipment Heating or No-Load Sequence 2
  ,                                       !- Zone Equipment Sequential Cooling Fraction 2
  ;                                       !- Zone Equipment Sequential Heating Fraction 2

OS:ThermalZone,
  {896c9cec-94cc-4c96-93e8-fcab342144e2}, !- Handle
  garage zone,                            !- Name
  ,                                       !- Multiplier
  ,                                       !- Ceiling Height {m}
  ,                                       !- Volume {m3}
  ,                                       !- Floor Area {m2}
  ,                                       !- Zone Inside Convection Algorithm
  ,                                       !- Zone Outside Convection Algorithm
  ,                                       !- Zone Conditioning Equipment List Name
  {7389d955-4ae2-4bb9-a693-f3b0da3204e9}, !- Zone Air Inlet Port List
  {a7688bea-be92-49be-a49d-db473f366291}, !- Zone Air Exhaust Port List
  {356e1c4b-8b93-47a3-beea-d78843551e8a}, !- Zone Air Node Name
  {2ccf826e-4407-4e5b-adda-2a73b24b2f20}, !- Zone Return Air Port List
  ,                                       !- Primary Daylighting Control Name
  ,                                       !- Fraction of Zone Controlled by Primary Daylighting Control
  ,                                       !- Secondary Daylighting Control Name
  ,                                       !- Fraction of Zone Controlled by Secondary Daylighting Control
  ,                                       !- Illuminance Map Name
  ,                                       !- Group Rendering Name
  ,                                       !- Thermostat Name
  No;                                     !- Use Ideal Air Loads

OS:Node,
  {d53dcf18-d9c7-4541-9d9d-0cf1c37a3e0d}, !- Handle
  Node 2,                                 !- Name
  {356e1c4b-8b93-47a3-beea-d78843551e8a}, !- Inlet Port
  ;                                       !- Outlet Port

OS:Connection,
  {356e1c4b-8b93-47a3-beea-d78843551e8a}, !- Handle
  {e3449917-6573-41bf-870b-728c87a483f2}, !- Name
  {896c9cec-94cc-4c96-93e8-fcab342144e2}, !- Source Object
  11,                                     !- Outlet Port
  {d53dcf18-d9c7-4541-9d9d-0cf1c37a3e0d}, !- Target Object
  2;                                      !- Inlet Port

OS:PortList,
  {7389d955-4ae2-4bb9-a693-f3b0da3204e9}, !- Handle
  {61b5f69d-b0ef-4da8-9c7d-80bf0b8e03f2}, !- Name
  {896c9cec-94cc-4c96-93e8-fcab342144e2}; !- HVAC Component

OS:PortList,
  {a7688bea-be92-49be-a49d-db473f366291}, !- Handle
  {ccba1117-1d98-40c5-9f25-728d52a7554c}, !- Name
  {896c9cec-94cc-4c96-93e8-fcab342144e2}; !- HVAC Component

OS:PortList,
  {2ccf826e-4407-4e5b-adda-2a73b24b2f20}, !- Handle
  {c2dec789-c446-4640-ab11-974894cdd187}, !- Name
  {896c9cec-94cc-4c96-93e8-fcab342144e2}; !- HVAC Component

OS:Sizing:Zone,
  {36296187-cc79-4963-9e1e-c32b063a7b15}, !- Handle
  {896c9cec-94cc-4c96-93e8-fcab342144e2}, !- Zone or ZoneList Name
  SupplyAirTemperature,                   !- Zone Cooling Design Supply Air Temperature Input Method
  14,                                     !- Zone Cooling Design Supply Air Temperature {C}
  11.11,                                  !- Zone Cooling Design Supply Air Temperature Difference {deltaC}
  SupplyAirTemperature,                   !- Zone Heating Design Supply Air Temperature Input Method
  40,                                     !- Zone Heating Design Supply Air Temperature {C}
  11.11,                                  !- Zone Heating Design Supply Air Temperature Difference {deltaC}
  0.0085,                                 !- Zone Cooling Design Supply Air Humidity Ratio {kg-H2O/kg-air}
  0.008,                                  !- Zone Heating Design Supply Air Humidity Ratio {kg-H2O/kg-air}
  ,                                       !- Zone Heating Sizing Factor
  ,                                       !- Zone Cooling Sizing Factor
  DesignDay,                              !- Cooling Design Air Flow Method
  ,                                       !- Cooling Design Air Flow Rate {m3/s}
  ,                                       !- Cooling Minimum Air Flow per Zone Floor Area {m3/s-m2}
  ,                                       !- Cooling Minimum Air Flow {m3/s}
  ,                                       !- Cooling Minimum Air Flow Fraction
  DesignDay,                              !- Heating Design Air Flow Method
  ,                                       !- Heating Design Air Flow Rate {m3/s}
  ,                                       !- Heating Maximum Air Flow per Zone Floor Area {m3/s-m2}
  ,                                       !- Heating Maximum Air Flow {m3/s}
  ,                                       !- Heating Maximum Air Flow Fraction
  ,                                       !- Design Zone Air Distribution Effectiveness in Cooling Mode
  ,                                       !- Design Zone Air Distribution Effectiveness in Heating Mode
  No,                                     !- Account for Dedicated Outdoor Air System
  NeutralSupplyAir,                       !- Dedicated Outdoor Air System Control Strategy
  autosize,                               !- Dedicated Outdoor Air Low Setpoint Temperature for Design {C}
  autosize;                               !- Dedicated Outdoor Air High Setpoint Temperature for Design {C}

OS:ZoneHVAC:EquipmentList,
  {e15ab66c-208d-47ac-a039-9d5c1ccbd091}, !- Handle
  Zone HVAC Equipment List 2,             !- Name
  {896c9cec-94cc-4c96-93e8-fcab342144e2}; !- Thermal Zone

OS:Space,
  {685567ae-2519-4bef-8bdd-959b9afb8545}, !- Handle
  garage space,                           !- Name
  {6d443367-c3e8-420a-b5a6-4674321c99ef}, !- Space Type Name
  ,                                       !- Default Construction Set Name
  ,                                       !- Default Schedule Set Name
  -0,                                     !- Direction of Relative North {deg}
  0,                                      !- X Origin {m}
  0,                                      !- Y Origin {m}
  0,                                      !- Z Origin {m}
  ,                                       !- Building Story Name
  {896c9cec-94cc-4c96-93e8-fcab342144e2}; !- Thermal Zone Name

OS:Surface,
  {4704149c-ff47-42ed-bda8-6e62f458700e}, !- Handle
  Surface 1,                              !- Name
  Floor,                                  !- Surface Type
  {d7d32dab-8cc8-4a85-b58c-a1c65b7f4e61}, !- Construction Name
  {685567ae-2519-4bef-8bdd-959b9afb8545}, !- Space Name
  Foundation,                             !- Outside Boundary Condition
  {65dc8892-306d-433e-ae18-226faf645053}, !- Outside Boundary Condition Object
  NoSun,                                  !- Sun Exposure
  NoWind,                                 !- Wind Exposure
  ,                                       !- View Factor to Ground
  ,                                       !- Number of Vertices
  16.3508427172132, -3.6576, 0,           !- X,Y,Z Vertex 1 {m}
  16.3508427172132, 3.6576, 0,            !- X,Y,Z Vertex 2 {m}
  20.0084427172132, 3.6576, 0,            !- X,Y,Z Vertex 3 {m}
  20.0084427172132, -3.6576, 0;           !- X,Y,Z Vertex 4 {m}

OS:Surface,
  {b436b33e-3e0b-419b-868c-f86c4fd1a233}, !- Handle
  Surface 2,                              !- Name
  Wall,                                   !- Surface Type
  {3fed1521-32ed-4c3c-9f01-cbaf28fd281f}, !- Construction Name
  {685567ae-2519-4bef-8bdd-959b9afb8545}, !- Space Name
  Surface,                                !- Outside Boundary Condition
  {8568797d-6931-4d96-b1ed-dec44f2b4b59}, !- Outside Boundary Condition Object
  NoSun,                                  !- Sun Exposure
  NoWind,                                 !- Wind Exposure
  ,                                       !- View Factor to Ground
  ,                                       !- Number of Vertices