!- NOTE: Auto-generated from /test/osw_files/SFD_1story_UB_UA_ASHP2_HPWH.osw

OS:Version,
  {4a2b74ca-d078-4439-b233-0c89026e8d05}, !- Handle
  2.8.0;                                  !- Version Identifier

OS:Building,
  {7dbff2bd-56ef-4481-aee0-3e22905e0e90}, !- Handle
  Building 1,                             !- Name
  ,                                       !- Building Sector Type
  202.5,                                  !- North Axis {deg}
  ,                                       !- Nominal Floor to Floor Height {m}
  ,                                       !- Space Type Name
  ,                                       !- Default Construction Set Name
  ,                                       !- Default Schedule Set Name
  1,                                      !- Standards Number of Stories
  1,                                      !- Standards Number of Above Ground Stories
  ,                                       !- Standards Template
  singlefamilydetached,                   !- Standards Building Type
  1;                                      !- Standards Number of Living Units

OS:Facility,
  {f5dfc812-4911-4c09-85bb-a36d8015535c}; !- Handle

OS:Site,
  {b207ddf3-9acd-4b3c-875b-d28097be502b}, !- Handle
  Denver Intl Ap_CO_USA,                  !- Name
  39.83,                                  !- Latitude {deg}
  -104.65,                                !- Longitude {deg}
  -7,                                     !- Time Zone {hr}
  1650,                                   !- Elevation {m}
  Suburbs;                                !- Terrain

OS:SimulationControl,
  {0c8d6282-a78a-475a-af8c-922a48d18989}, !- Handle
  ,                                       !- Do Zone Sizing Calculation
  ,                                       !- Do System Sizing Calculation
  ,                                       !- Do Plant Sizing Calculation
  No;                                     !- Run Simulation for Sizing Periods

OS:Sizing:Parameters,
  {69bf62d0-3d62-480a-b605-739e1ad17944}, !- Handle
  1.25,                                   !- Heating Sizing Factor
  1.15;                                   !- Cooling Sizing Factor

OS:Timestep,
  {5332bc7d-753e-46e9-8ae8-3c9f42890143}, !- Handle
  6;                                      !- Number of Timesteps per Hour

OS:ShadowCalculation,
  {0981c303-a446-4b14-83f0-05c6c7ba5ff6}, !- Handle
  20,                                     !- Calculation Frequency
  200;                                    !- Maximum Figures in Shadow Overlap Calculations

OS:HeatBalanceAlgorithm,
  {fdc68e4a-798a-412e-a1e1-3dc789a77a42}, !- Handle
  ConductionTransferFunction,             !- Algorithm
  200;                                    !- Surface Temperature Upper Limit {C}

OS:RunPeriod,
  {ad5963b2-55b7-4736-8e4f-28f7c991a7ef}, !- Handle
  Run Period 1,                           !- Name
  1,                                      !- Begin Month
  1,                                      !- Begin Day of Month
  12,                                     !- End Month
  31,                                     !- End Day of Month
  ,                                       !- Use Weather File Holidays and Special Days
  ,                                       !- Use Weather File Daylight Saving Period
  ,                                       !- Apply Weekend Holiday Rule
  ,                                       !- Use Weather File Rain Indicators
  ,                                       !- Use Weather File Snow Indicators
  ;                                       !- Number of Times Runperiod to be Repeated

OS:LifeCycleCost:Parameters,
  {d576957e-bc4e-4d28-9161-896e74625876}, !- Handle
  ,                                       !- Analysis Type
  ,                                       !- Discounting Convention
  ,                                       !- Inflation Approach
  ,                                       !- Real Discount Rate
  ,                                       !- Nominal Discount Rate
  ,                                       !- Inflation
  ,                                       !- Base Date Month
  ,                                       !- Base Date Year
  ,                                       !- Service Date Month
  ,                                       !- Service Date Year
  ;                                       !- Length of Study Period in Years

OS:SurfaceConvectionAlgorithm:Outside,
  {429f133c-98f0-4786-aff1-909e5e6d4645}, !- Handle
  DOE-2;                                  !- Algorithm

OS:SurfaceConvectionAlgorithm:Inside,
  {970023b4-43c7-40f9-b51a-390d59dff26f}, !- Handle
  TARP;                                   !- Algorithm

OS:ZoneCapacitanceMultiplier:ResearchSpecial,
  {8e7ef084-4064-42a8-8165-80302affa6d8}, !- Handle
  ,                                       !- Temperature Capacity Multiplier
  15,                                     !- Humidity Capacity Multiplier
  ;                                       !- Carbon Dioxide Capacity Multiplier

OS:WeatherFile,
  {6962d895-4896-4a8f-9fe3-08d8696a6676}, !- Handle
  Denver Intl Ap,                         !- City
  CO,                                     !- State Province Region
  USA,                                    !- Country
  TMY3,                                   !- Data Source
  725650,                                 !- WMO Number
  39.83,                                  !- Latitude {deg}
  -104.65,                                !- Longitude {deg}
  -7,                                     !- Time Zone {hr}
  1650,                                   !- Elevation {m}
  file:../weather/USA_CO_Denver.Intl.AP.725650_TMY3.epw, !- Url
  E23378AA;                               !- Checksum

OS:AdditionalProperties,
  {d692f0da-7818-465c-8b01-7db7b9092341}, !- Handle
  {6962d895-4896-4a8f-9fe3-08d8696a6676}, !- Object Name
  EPWHeaderCity,                          !- Feature Name 1
  String,                                 !- Feature Data Type 1
  Denver Intl Ap,                         !- Feature Value 1
  EPWHeaderState,                         !- Feature Name 2
  String,                                 !- Feature Data Type 2
  CO,                                     !- Feature Value 2
  EPWHeaderCountry,                       !- Feature Name 3
  String,                                 !- Feature Data Type 3
  USA,                                    !- Feature Value 3
  EPWHeaderDataSource,                    !- Feature Name 4
  String,                                 !- Feature Data Type 4
  TMY3,                                   !- Feature Value 4
  EPWHeaderStation,                       !- Feature Name 5
  String,                                 !- Feature Data Type 5
  725650,                                 !- Feature Value 5
  EPWHeaderLatitude,                      !- Feature Name 6
  Double,                                 !- Feature Data Type 6
  39.829999999999998,                     !- Feature Value 6
  EPWHeaderLongitude,                     !- Feature Name 7
  Double,                                 !- Feature Data Type 7
  -104.65000000000001,                    !- Feature Value 7
  EPWHeaderTimezone,                      !- Feature Name 8
  Double,                                 !- Feature Data Type 8
  -7,                                     !- Feature Value 8
  EPWHeaderAltitude,                      !- Feature Name 9
  Double,                                 !- Feature Data Type 9
  5413.3858267716532,                     !- Feature Value 9
  EPWHeaderLocalPressure,                 !- Feature Name 10
  Double,                                 !- Feature Data Type 10
  0.81937567683596546,                    !- Feature Value 10
  EPWHeaderRecordsPerHour,                !- Feature Name 11
  Double,                                 !- Feature Data Type 11
  0,                                      !- Feature Value 11
  EPWDataAnnualAvgDrybulb,                !- Feature Name 12
  Double,                                 !- Feature Data Type 12
  51.575616438356228,                     !- Feature Value 12
  EPWDataAnnualMinDrybulb,                !- Feature Name 13
  Double,                                 !- Feature Data Type 13
  -2.9200000000000017,                    !- Feature Value 13
  EPWDataAnnualMaxDrybulb,                !- Feature Name 14
  Double,                                 !- Feature Data Type 14
  104,                                    !- Feature Value 14
  EPWDataCDD50F,                          !- Feature Name 15
  Double,                                 !- Feature Data Type 15
  3072.2925000000005,                     !- Feature Value 15
  EPWDataCDD65F,                          !- Feature Name 16
  Double,                                 !- Feature Data Type 16
  883.62000000000035,                     !- Feature Value 16
  EPWDataHDD50F,                          !- Feature Name 17
  Double,                                 !- Feature Data Type 17
  2497.1925000000001,                     !- Feature Value 17
  EPWDataHDD65F,                          !- Feature Name 18
  Double,                                 !- Feature Data Type 18
  5783.5200000000013,                     !- Feature Value 18
  EPWDataAnnualAvgWindspeed,              !- Feature Name 19
  Double,                                 !- Feature Data Type 19
  3.9165296803649667,                     !- Feature Value 19
  EPWDataMonthlyAvgDrybulbs,              !- Feature Name 20
  String,                                 !- Feature Data Type 20
  33.4191935483871&#4431.90142857142857&#4443.02620967741937&#4442.48624999999999&#4459.877741935483854&#4473.57574999999997&#4472.07975806451608&#4472.70008064516134&#4466.49200000000006&#4450.079112903225806&#4437.218250000000005&#4434.582177419354835, !- Feature Value 20
  EPWDataGroundMonthlyTemps,              !- Feature Name 21
  String,                                 !- Feature Data Type 21
  44.08306285945173&#4440.89570904991865&#4440.64045432632048&#4442.153016571250646&#4448.225111118704206&#4454.268919273837525&#4459.508577937551024&#4462.82777283423508&#4463.10975667174995&#4460.41014950381947&#4455.304105212311526&#4449.445696474514364, !- Feature Value 21
  EPWDataWSF,                             !- Feature Name 22
  Double,                                 !- Feature Data Type 22
  0.58999999999999997,                    !- Feature Value 22
  EPWDataMonthlyAvgDailyHighDrybulbs,     !- Feature Name 23
  String,                                 !- Feature Data Type 23
  47.41032258064516&#4446.58642857142857&#4455.15032258064517&#4453.708&#4472.80193548387098&#4488.67600000000002&#4486.1858064516129&#4485.87225806451613&#4482.082&#4463.18064516129033&#4448.73400000000001&#4448.87935483870968, !- Feature Value 23
  EPWDataMonthlyAvgDailyLowDrybulbs,      !- Feature Name 24
  String,                                 !- Feature Data Type 24
  19.347741935483874&#4419.856428571428573&#4430.316129032258065&#4431.112&#4447.41612903225806&#4457.901999999999994&#4459.063870967741934&#4460.956774193548384&#4452.352000000000004&#4438.41612903225806&#4427.002000000000002&#4423.02903225806451, !- Feature Value 24
  EPWDesignHeatingDrybulb,                !- Feature Name 25
  Double,                                 !- Feature Data Type 25
  12.02,                                  !- Feature Value 25
  EPWDesignHeatingWindspeed,              !- Feature Name 26
  Double,                                 !- Feature Data Type 26
  2.8062500000000004,                     !- Feature Value 26
  EPWDesignCoolingDrybulb,                !- Feature Name 27
  Double,                                 !- Feature Data Type 27
  91.939999999999998,                     !- Feature Value 27
  EPWDesignCoolingWetbulb,                !- Feature Name 28
  Double,                                 !- Feature Data Type 28
  59.95131430195849,                      !- Feature Value 28
  EPWDesignCoolingHumidityRatio,          !- Feature Name 29
  Double,                                 !- Feature Data Type 29
  0.0059161086834698092,                  !- Feature Value 29
  EPWDesignCoolingWindspeed,              !- Feature Name 30
  Double,                                 !- Feature Data Type 30
  3.7999999999999989,                     !- Feature Value 30
  EPWDesignDailyTemperatureRange,         !- Feature Name 31
  Double,                                 !- Feature Data Type 31
  24.915483870967748,                     !- Feature Value 31
  EPWDesignDehumidDrybulb,                !- Feature Name 32
  Double,                                 !- Feature Data Type 32
  67.996785714285721,                     !- Feature Value 32
  EPWDesignDehumidHumidityRatio,          !- Feature Name 33
  Double,                                 !- Feature Data Type 33
  0.012133744170488724,                   !- Feature Value 33
  EPWDesignCoolingDirectNormal,           !- Feature Name 34
  Double,                                 !- Feature Data Type 34
  985,                                    !- Feature Value 34
  EPWDesignCoolingDiffuseHorizontal,      !- Feature Name 35
  Double,                                 !- Feature Data Type 35
  84;                                     !- Feature Value 35

OS:YearDescription,
  {e6944dff-3099-4ca2-8e5f-397e134bd7f8}, !- Handle
  ,                                       !- Calendar Year
  Monday;                                 !- Day of Week for Start Day

OS:ClimateZones,
  {65d6ec3e-902f-46ea-b9cf-ab12a8d4b5b0}, !- Handle
  ,                                       !- Active Institution
  ,                                       !- Active Year
  ,                                       !- Climate Zone Institution Name 1
  ,                                       !- Climate Zone Document Name 1
  ,                                       !- Climate Zone Document Year 1
  ,                                       !- Climate Zone Value 1
  Building America,                       !- Climate Zone Institution Name 2
  ,                                       !- Climate Zone Document Name 2
  0,                                      !- Climate Zone Document Year 2
  Cold;                                   !- Climate Zone Value 2

OS:Site:WaterMainsTemperature,
  {6673f092-25e0-4c52-b31d-1cb891f3e953}, !- Handle
  Correlation,                            !- Calculation Method
  ,                                       !- Temperature Schedule Name
  10.8753424657535,                       !- Annual Average Outdoor Air Temperature {C}
  23.1524007936508;                       !- Maximum Difference In Monthly Average Outdoor Air Temperatures {deltaC}

OS:RunPeriodControl:DaylightSavingTime,
  {084593d0-036c-4502-945f-729c82cddab6}, !- Handle
  4/7,                                    !- Start Date
  10/26;                                  !- End Date

OS:Site:GroundTemperature:Deep,
  {05c6bfee-425b-47d3-bcee-e61c0084240b}, !- Handle
  10.8753424657535,                       !- January Deep Ground Temperature {C}
  10.8753424657535,                       !- February Deep Ground Temperature {C}
  10.8753424657535,                       !- March Deep Ground Temperature {C}
  10.8753424657535,                       !- April Deep Ground Temperature {C}
  10.8753424657535,                       !- May Deep Ground Temperature {C}
  10.8753424657535,                       !- June Deep Ground Temperature {C}
  10.8753424657535,                       !- July Deep Ground Temperature {C}
  10.8753424657535,                       !- August Deep Ground Temperature {C}
  10.8753424657535,                       !- September Deep Ground Temperature {C}
  10.8753424657535,                       !- October Deep Ground Temperature {C}
  10.8753424657535,                       !- November Deep Ground Temperature {C}
  10.8753424657535;                       !- December Deep Ground Temperature {C}

OS:ThermalZone,
  {25d97fdf-b354-444a-8d69-78165a09a117}, !- Handle
  living zone,                            !- Name
  ,                                       !- Multiplier
  ,                                       !- Ceiling Height {m}
  ,                                       !- Volume {m3}
  ,                                       !- Floor Area {m2}
  ,                                       !- Zone Inside Convection Algorithm
  ,                                       !- Zone Outside Convection Algorithm
  ,                                       !- Zone Conditioning Equipment List Name
  {621a12ca-3831-43e7-87d1-49393782abb6}, !- Zone Air Inlet Port List
  {b33c182e-01e9-4544-8bdc-868c2922a7f5}, !- Zone Air Exhaust Port List
  {e0b1daa4-0b3c-44d0-94ad-357ee0b5e6f8}, !- Zone Air Node Name
  {9ee960ad-09e7-4f43-afd0-e2bd40a4523f}, !- Zone Return Air Port List
  ,                                       !- Primary Daylighting Control Name
  ,                                       !- Fraction of Zone Controlled by Primary Daylighting Control
  ,                                       !- Secondary Daylighting Control Name
  ,                                       !- Fraction of Zone Controlled by Secondary Daylighting Control
  ,                                       !- Illuminance Map Name
  ,                                       !- Group Rendering Name
  {29277d8f-34ba-4b88-b723-84a6ff3355f2}, !- Thermostat Name
  No;                                     !- Use Ideal Air Loads

OS:Node,
  {8621f30b-3099-4c0e-9327-e42a5c8fa500}, !- Handle
  Node 1,                                 !- Name
  {e0b1daa4-0b3c-44d0-94ad-357ee0b5e6f8}, !- Inlet Port
  ;                                       !- Outlet Port

OS:Connection,
  {e0b1daa4-0b3c-44d0-94ad-357ee0b5e6f8}, !- Handle
  {2bdbe0b8-8b2b-462f-bbc3-585de5c37b08}, !- Name
  {25d97fdf-b354-444a-8d69-78165a09a117}, !- Source Object
  11,                                     !- Outlet Port
  {8621f30b-3099-4c0e-9327-e42a5c8fa500}, !- Target Object
  2;                                      !- Inlet Port

OS:PortList,
  {621a12ca-3831-43e7-87d1-49393782abb6}, !- Handle
  {68540564-a69e-4536-9cef-cc193f3c2828}, !- Name
  {25d97fdf-b354-444a-8d69-78165a09a117}, !- HVAC Component
  {377cf85e-fd0f-4c3d-9980-d85b2ddfc0e8}, !- Port 1
  {3902319d-86bb-489d-bf9b-7ff262cf58a1}; !- Port 2

OS:PortList,
  {b33c182e-01e9-4544-8bdc-868c2922a7f5}, !- Handle
  {01d83164-0863-466f-8a52-15f0afc35b55}, !- Name
  {25d97fdf-b354-444a-8d69-78165a09a117}; !- HVAC Component

OS:PortList,
  {9ee960ad-09e7-4f43-afd0-e2bd40a4523f}, !- Handle
  {d4c5f168-8f99-4b73-818e-32ec06bafb84}, !- Name
  {25d97fdf-b354-444a-8d69-78165a09a117}, !- HVAC Component
  {6a0ecb24-ac03-4edc-968a-cd4fef7c89fe}, !- Port 1
  {1fa65578-0bb4-4b6f-be98-23cf4c14e57b}; !- Port 2

OS:Sizing:Zone,
  {32fe579d-8830-4844-9f11-bf491439cd96}, !- Handle
  {25d97fdf-b354-444a-8d69-78165a09a117}, !- Zone or ZoneList Name
  SupplyAirTemperature,                   !- Zone Cooling Design Supply Air Temperature Input Method
  14,                                     !- Zone Cooling Design Supply Air Temperature {C}
  11.11,                                  !- Zone Cooling Design Supply Air Temperature Difference {deltaC}
  SupplyAirTemperature,                   !- Zone Heating Design Supply Air Temperature Input Method
  40,                                     !- Zone Heating Design Supply Air Temperature {C}
  11.11,                                  !- Zone Heating Design Supply Air Temperature Difference {deltaC}
  0.0085,                                 !- Zone Cooling Design Supply Air Humidity Ratio {kg-H2O/kg-air}
  0.008,                                  !- Zone Heating Design Supply Air Humidity Ratio {kg-H2O/kg-air}
  ,                                       !- Zone Heating Sizing Factor
  ,                                       !- Zone Cooling Sizing Factor
  DesignDay,                              !- Cooling Design Air Flow Method
  ,                                       !- Cooling Design Air Flow Rate {m3/s}
  ,                                       !- Cooling Minimum Air Flow per Zone Floor Area {m3/s-m2}
  ,                                       !- Cooling Minimum Air Flow {m3/s}
  ,                                       !- Cooling Minimum Air Flow Fraction
  DesignDay,                              !- Heating Design Air Flow Method
  ,                                       !- Heating Design Air Flow Rate {m3/s}
  ,                                       !- Heating Maximum Air Flow per Zone Floor Area {m3/s-m2}
  ,                                       !- Heating Maximum Air Flow {m3/s}
  ,                                       !- Heating Maximum Air Flow Fraction
  ,                                       !- Design Zone Air Distribution Effectiveness in Cooling Mode
  ,                                       !- Design Zone Air Distribution Effectiveness in Heating Mode
  No,                                     !- Account for Dedicated Outdoor Air System
  NeutralSupplyAir,                       !- Dedicated Outdoor Air System Control Strategy
  autosize,                               !- Dedicated Outdoor Air Low Setpoint Temperature for Design {C}
  autosize;                               !- Dedicated Outdoor Air High Setpoint Temperature for Design {C}

OS:ZoneHVAC:EquipmentList,
  {ac3e10be-d3d7-4e50-9b9f-6b30f0f0f3a8}, !- Handle
  Zone HVAC Equipment List 1,             !- Name
  {25d97fdf-b354-444a-8d69-78165a09a117}, !- Thermal Zone
  SequentialLoad,                         !- Load Distribution Scheme
  {063dc4c4-90e5-42a6-9c79-37e91cd91d09}, !- Zone Equipment 1
  1,                                      !- Zone Equipment Cooling Sequence 1
  1,                                      !- Zone Equipment Heating or No-Load Sequence 1
  ,                                       !- Zone Equipment Sequential Cooling Fraction 1
  ,                                       !- Zone Equipment Sequential Heating Fraction 1
  {4ef7a061-251b-41a9-a1d8-26e1132e1e91}, !- Zone Equipment 2
  2,                                      !- Zone Equipment Cooling Sequence 2
  2,                                      !- Zone Equipment Heating or No-Load Sequence 2
  ,                                       !- Zone Equipment Sequential Cooling Fraction 2
  ;                                       !- Zone Equipment Sequential Heating Fraction 2

OS:Space,
  {647dc895-0e15-41f2-963e-6628032dbc03}, !- Handle
  living space,                           !- Name
  {57775372-71fc-45bd-b826-4148ddf3e66c}, !- Space Type Name
  ,                                       !- Default Construction Set Name
  ,                                       !- Default Schedule Set Name
  -0,                                     !- Direction of Relative North {deg}
  0,                                      !- X Origin {m}
  0,                                      !- Y Origin {m}
  0,                                      !- Z Origin {m}
  ,                                       !- Building Story Name
  {25d97fdf-b354-444a-8d69-78165a09a117}, !- Thermal Zone Name
  ,                                       !- Part of Total Floor Area
  ,                                       !- Design Specification Outdoor Air Object Name
  {a8d4142f-c550-403b-8d73-dbf77eb1ab16}; !- Building Unit Name

OS:Surface,
  {64f8351e-5a80-481c-81e7-2b7a64a56f3a}, !- Handle
  Surface 1,                              !- Name
  Floor,                                  !- Surface Type
  {54c264b3-4a9c-4f20-b4e2-22cffa708a17}, !- Construction Name
  {647dc895-0e15-41f2-963e-6628032dbc03}, !- Space Name
  Surface,                                !- Outside Boundary Condition
  {8ae6ebcf-d754-40ba-8319-c472508b2b25}, !- Outside Boundary Condition Object
  NoSun,                                  !- Sun Exposure
  NoWind,                                 !- Wind Exposure
  ,                                       !- View Factor to Ground
  ,                                       !- Number of Vertices
  0, 0, 0,                                !- X,Y,Z Vertex 1 {m}
  0, 12.4434078933385, 0,                 !- X,Y,Z Vertex 2 {m}
  22.3981342080094, 12.4434078933385, 0,  !- X,Y,Z Vertex 3 {m}
  22.3981342080094, 0, 0;                 !- X,Y,Z Vertex 4 {m}

OS:Surface,
  {b0380f73-a9db-4201-b12e-664e34ddb73a}, !- Handle
  Surface 2,                              !- Name
  Wall,                                   !- Surface Type
  {d18b9350-f366-4152-8283-90d781283a76}, !- Construction Name
  {647dc895-0e15-41f2-963e-6628032dbc03}, !- Space Name
  Outdoors,                               !- Outside Boundary Condition
  ,                                       !- Outside Boundary Condition Object
  SunExposed,                             !- Sun Exposure
  WindExposed,                            !- Wind Exposure
  ,                                       !- View Factor to Ground
  ,                                       !- Number of Vertices
  0, 12.4434078933385, 2.4384,            !- X,Y,Z Vertex 1 {m}
  0, 12.4434078933385, 0,                 !- X,Y,Z Vertex 2 {m}
  0, 0, 0,                                !- X,Y,Z Vertex 3 {m}
  0, 0, 2.4384;                           !- X,Y,Z Vertex 4 {m}

OS:Surface,
  {639abb2a-0e80-45c0-9d24-da97d0b8f795}, !- Handle
  Surface 3,                              !- Name
  Wall,                                   !- Surface Type
  {d18b9350-f366-4152-8283-90d781283a76}, !- Construction Name
  {647dc895-0e15-41f2-963e-6628032dbc03}, !- Space Name
  Outdoors,                               !- Outside Boundary Condition
  ,                                       !- Outside Boundary Condition Object
  SunExposed,                             !- Sun Exposure
  WindExposed,                            !- Wind Exposure
  ,                                       !- View Factor to Ground
  ,                                       !- Number of Vertices
  22.3981342080094, 12.4434078933385, 2.4384, !- X,Y,Z Vertex 1 {m}
  22.3981342080094, 12.4434078933385, 0,  !- X,Y,Z Vertex 2 {m}
  0, 12.4434078933385, 0,                 !- X,Y,Z Vertex 3 {m}
  0, 12.4434078933385, 2.4384;            !- X,Y,Z Vertex 4 {m}

OS:Surface,
  {9abc5acf-3fa9-4c26-a16e-8308356f01fa}, !- Handle
  Surface 4,                              !- Name
  Wall,                                   !- Surface Type
  {d18b9350-f366-4152-8283-90d781283a76}, !- Construction Name
  {647dc895-0e15-41f2-963e-6628032dbc03}, !- Space Name
  Outdoors,                               !- Outside Boundary Condition
  ,                                       !- Outside Boundary Condition Object
  SunExposed,                             !- Sun Exposure
  WindExposed,                            !- Wind Exposure
  ,                                       !- View Factor to Ground
  ,                                       !- Number of Vertices
  22.3981342080094, 0, 2.4384,            !- X,Y,Z Vertex 1 {m}
  22.3981342080094, 0, 0,                 !- X,Y,Z Vertex 2 {m}
  22.3981342080094, 12.4434078933385, 0,  !- X,Y,Z Vertex 3 {m}
  22.3981342080094, 12.4434078933385, 2.4384; !- X,Y,Z Vertex 4 {m}

OS:Surface,
  {8ffb7bd0-2b8a-4952-ada0-699e8fa8d07b}, !- Handle
  Surface 5,                              !- Name
  Wall,                                   !- Surface Type
  {d18b9350-f366-4152-8283-90d781283a76}, !- Construction Name
  {647dc895-0e15-41f2-963e-6628032dbc03}, !- Space Name
  Outdoors,                               !- Outside Boundary Condition
  ,                                       !- Outside Boundary Condition Object
  SunExposed,                             !- Sun Exposure
  WindExposed,                            !- Wind Exposure
  ,                                       !- View Factor to Ground
  ,                                       !- Number of Vertices
  22.3981342080094, 0, 0,                 !- X,Y,Z Vertex 1 {m}
  22.3981342080094, 0, 2.4384,            !- X,Y,Z Vertex 2 {m}
  1.91951428571429, 0, 2.4384,            !- X,Y,Z Vertex 3 {m}
  1.91951428571429, 0, 0;                 !- X,Y,Z Vertex 4 {m}

OS:Surface,
  {4eca4779-b109-4908-ab22-56dd01c8b2ab}, !- Handle
  Surface 6,                              !- Name
  RoofCeiling,                            !- Surface Type
  {ebbcf1b2-5e2f-4141-a15b-39326cf5f7fa}, !- Construction Name
  {647dc895-0e15-41f2-963e-6628032dbc03}, !- Space Name
  Surface,                                !- Outside Boundary Condition
  {bd95b077-d456-4a11-acce-27bb5f749ee3}, !- Outside Boundary Condition Object
  NoSun,                                  !- Sun Exposure
  NoWind,                                 !- Wind Exposure
  ,                                       !- View Factor to Ground
  ,                                       !- Number of Vertices
  22.3981342080094, 0, 2.4384,            !- X,Y,Z Vertex 1 {m}
  22.3981342080094, 12.4434078933385, 2.4384, !- X,Y,Z Vertex 2 {m}
  0, 12.4434078933385, 2.4384,            !- X,Y,Z Vertex 3 {m}
  0, 0, 2.4384;                           !- X,Y,Z Vertex 4 {m}

OS:SpaceType,
  {57775372-71fc-45bd-b826-4148ddf3e66c}, !- Handle
  Space Type 1,                           !- Name
  ,                                       !- Default Construction Set Name
  ,                                       !- Default Schedule Set Name
  ,                                       !- Group Rendering Name
  ,                                       !- Design Specification Outdoor Air Object Name
  ,                                       !- Standards Template
  ,                                       !- Standards Building Type
  living;                                 !- Standards Space Type

OS:Surface,
  {bd95b077-d456-4a11-acce-27bb5f749ee3}, !- Handle
  Surface 7,                              !- Name
  Floor,                                  !- Surface Type
  {d3be18df-6ca3-4845-b72b-9d7131943db7}, !- Construction Name
  {09a57b07-eeb2-41e1-8974-0a3a3447e0ec}, !- Space Name
  Surface,                                !- Outside Boundary Condition
  {4eca4779-b109-4908-ab22-56dd01c8b2ab}, !- Outside Boundary Condition Object