!- NOTE: Auto-generated from /test/osw_files/SFD_2story_FB_UA_GRG_AC1_ElecBaseboard_FuelTankWH.osw

OS:Version,
  {8f5232dc-94c9-4a5d-b304-ba590db8f9c1}, !- Handle
  2.9.1;                                  !- Version Identifier

OS:SimulationControl,
  {b755f16b-71a6-4d4c-8ccd-c2b224722dd5}, !- Handle
  ,                                       !- Do Zone Sizing Calculation
  ,                                       !- Do System Sizing Calculation
  ,                                       !- Do Plant Sizing Calculation
  No;                                     !- Run Simulation for Sizing Periods

OS:Timestep,
  {e7590384-e960-4541-9df4-e5226c85329d}, !- Handle
  6;                                      !- Number of Timesteps per Hour

OS:ShadowCalculation,
  {58f8e455-64e8-4772-8fde-6969109ee88f}, !- Handle
  20,                                     !- Calculation Frequency
  200;                                    !- Maximum Figures in Shadow Overlap Calculations

OS:SurfaceConvectionAlgorithm:Outside,
  {846ad585-2f86-4ff1-879a-f66f8a465a4a}, !- Handle
  DOE-2;                                  !- Algorithm

OS:SurfaceConvectionAlgorithm:Inside,
  {3a9c75bd-7e88-40eb-90b6-c33ad475f0a3}, !- Handle
  TARP;                                   !- Algorithm

OS:ZoneCapacitanceMultiplier:ResearchSpecial,
  {660ee801-9910-466c-a998-5aec1a0c7bf5}, !- Handle
  ,                                       !- Temperature Capacity Multiplier
  15,                                     !- Humidity Capacity Multiplier
  ;                                       !- Carbon Dioxide Capacity Multiplier

OS:RunPeriod,
  {a909569e-8805-4e84-912b-6366b61082a0}, !- Handle
  Run Period 1,                           !- Name
  1,                                      !- Begin Month
  1,                                      !- Begin Day of Month
  12,                                     !- End Month
  31,                                     !- End Day of Month
  ,                                       !- Use Weather File Holidays and Special Days
  ,                                       !- Use Weather File Daylight Saving Period
  ,                                       !- Apply Weekend Holiday Rule
  ,                                       !- Use Weather File Rain Indicators
  ,                                       !- Use Weather File Snow Indicators
  ;                                       !- Number of Times Runperiod to be Repeated

OS:YearDescription,
  {4cbd4708-aa8c-4e48-a43c-689e79c80a91}, !- Handle
  2007,                                   !- Calendar Year
  ,                                       !- Day of Week for Start Day
  ;                                       !- Is Leap Year

OS:WeatherFile,
  {e6969b5a-c7e7-4733-9b7a-e569158a0a5f}, !- Handle
  Denver Intl Ap,                         !- City
  CO,                                     !- State Province Region
  USA,                                    !- Country
  TMY3,                                   !- Data Source
  725650,                                 !- WMO Number
  39.83,                                  !- Latitude {deg}
  -104.65,                                !- Longitude {deg}
  -7,                                     !- Time Zone {hr}
  1650,                                   !- Elevation {m}
  file:../weather/USA_CO_Denver.Intl.AP.725650_TMY3.epw, !- Url
  E23378AA;                               !- Checksum

OS:AdditionalProperties,
  {df1a4a6b-5b19-46de-8151-5b64d937bec8}, !- Handle
  {e6969b5a-c7e7-4733-9b7a-e569158a0a5f}, !- Object Name
  EPWHeaderCity,                          !- Feature Name 1
  String,                                 !- Feature Data Type 1
  Denver Intl Ap,                         !- Feature Value 1
  EPWHeaderState,                         !- Feature Name 2
  String,                                 !- Feature Data Type 2
  CO,                                     !- Feature Value 2
  EPWHeaderCountry,                       !- Feature Name 3
  String,                                 !- Feature Data Type 3
  USA,                                    !- Feature Value 3
  EPWHeaderDataSource,                    !- Feature Name 4
  String,                                 !- Feature Data Type 4
  TMY3,                                   !- Feature Value 4
  EPWHeaderStation,                       !- Feature Name 5
  String,                                 !- Feature Data Type 5
  725650,                                 !- Feature Value 5
  EPWHeaderLatitude,                      !- Feature Name 6
  Double,                                 !- Feature Data Type 6
  39.829999999999998,                     !- Feature Value 6
  EPWHeaderLongitude,                     !- Feature Name 7
  Double,                                 !- Feature Data Type 7
  -104.65000000000001,                    !- Feature Value 7
  EPWHeaderTimezone,                      !- Feature Name 8
  Double,                                 !- Feature Data Type 8
  -7,                                     !- Feature Value 8
  EPWHeaderAltitude,                      !- Feature Name 9
  Double,                                 !- Feature Data Type 9
  5413.3858267716532,                     !- Feature Value 9
  EPWHeaderLocalPressure,                 !- Feature Name 10
  Double,                                 !- Feature Data Type 10
  0.81937567683596546,                    !- Feature Value 10
  EPWHeaderRecordsPerHour,                !- Feature Name 11
  Double,                                 !- Feature Data Type 11
  0,                                      !- Feature Value 11
  EPWDataAnnualAvgDrybulb,                !- Feature Name 12
  Double,                                 !- Feature Data Type 12
  51.575616438356228,                     !- Feature Value 12
  EPWDataAnnualMinDrybulb,                !- Feature Name 13
  Double,                                 !- Feature Data Type 13
  -2.9200000000000017,                    !- Feature Value 13
  EPWDataAnnualMaxDrybulb,                !- Feature Name 14
  Double,                                 !- Feature Data Type 14
  104,                                    !- Feature Value 14
  EPWDataCDD50F,                          !- Feature Name 15
  Double,                                 !- Feature Data Type 15
  3072.2925000000005,                     !- Feature Value 15
  EPWDataCDD65F,                          !- Feature Name 16
  Double,                                 !- Feature Data Type 16
  883.62000000000035,                     !- Feature Value 16
  EPWDataHDD50F,                          !- Feature Name 17
  Double,                                 !- Feature Data Type 17
  2497.1925000000001,                     !- Feature Value 17
  EPWDataHDD65F,                          !- Feature Name 18
  Double,                                 !- Feature Data Type 18
  5783.5200000000013,                     !- Feature Value 18
  EPWDataAnnualAvgWindspeed,              !- Feature Name 19
  Double,                                 !- Feature Data Type 19
  3.9165296803649667,                     !- Feature Value 19
  EPWDataMonthlyAvgDrybulbs,              !- Feature Name 20
  String,                                 !- Feature Data Type 20
  33.4191935483871&#4431.90142857142857&#4443.02620967741937&#4442.48624999999999&#4459.877741935483854&#4473.57574999999997&#4472.07975806451608&#4472.70008064516134&#4466.49200000000006&#4450.079112903225806&#4437.218250000000005&#4434.582177419354835, !- Feature Value 20
  EPWDataGroundMonthlyTemps,              !- Feature Name 21
  String,                                 !- Feature Data Type 21
  44.08306285945173&#4440.89570904991865&#4440.64045432632048&#4442.153016571250646&#4448.225111118704206&#4454.268919273837525&#4459.508577937551024&#4462.82777283423508&#4463.10975667174995&#4460.41014950381947&#4455.304105212311526&#4449.445696474514364, !- Feature Value 21
  EPWDataWSF,                             !- Feature Name 22
  Double,                                 !- Feature Data Type 22
  0.58999999999999997,                    !- Feature Value 22
  EPWDataMonthlyAvgDailyHighDrybulbs,     !- Feature Name 23
  String,                                 !- Feature Data Type 23
  47.41032258064516&#4446.58642857142857&#4455.15032258064517&#4453.708&#4472.80193548387098&#4488.67600000000002&#4486.1858064516129&#4485.87225806451613&#4482.082&#4463.18064516129033&#4448.73400000000001&#4448.87935483870968, !- Feature Value 23
  EPWDataMonthlyAvgDailyLowDrybulbs,      !- Feature Name 24
  String,                                 !- Feature Data Type 24
  19.347741935483874&#4419.856428571428573&#4430.316129032258065&#4431.112&#4447.41612903225806&#4457.901999999999994&#4459.063870967741934&#4460.956774193548384&#4452.352000000000004&#4438.41612903225806&#4427.002000000000002&#4423.02903225806451, !- Feature Value 24
  EPWDesignHeatingDrybulb,                !- Feature Name 25
  Double,                                 !- Feature Data Type 25
  12.02,                                  !- Feature Value 25
  EPWDesignHeatingWindspeed,              !- Feature Name 26
  Double,                                 !- Feature Data Type 26
  2.8062500000000004,                     !- Feature Value 26
  EPWDesignCoolingDrybulb,                !- Feature Name 27
  Double,                                 !- Feature Data Type 27
  91.939999999999998,                     !- Feature Value 27
  EPWDesignCoolingWetbulb,                !- Feature Name 28
  Double,                                 !- Feature Data Type 28
  59.95131430195849,                      !- Feature Value 28
  EPWDesignCoolingHumidityRatio,          !- Feature Name 29
  Double,                                 !- Feature Data Type 29
  0.0059161086834698092,                  !- Feature Value 29
  EPWDesignCoolingWindspeed,              !- Feature Name 30
  Double,                                 !- Feature Data Type 30
  3.7999999999999989,                     !- Feature Value 30
  EPWDesignDailyTemperatureRange,         !- Feature Name 31
  Double,                                 !- Feature Data Type 31
  24.915483870967748,                     !- Feature Value 31
  EPWDesignDehumidDrybulb,                !- Feature Name 32
  Double,                                 !- Feature Data Type 32
  67.996785714285721,                     !- Feature Value 32
  EPWDesignDehumidHumidityRatio,          !- Feature Name 33
  Double,                                 !- Feature Data Type 33
  0.012133744170488724,                   !- Feature Value 33
  EPWDesignCoolingDirectNormal,           !- Feature Name 34
  Double,                                 !- Feature Data Type 34
  985,                                    !- Feature Value 34
  EPWDesignCoolingDiffuseHorizontal,      !- Feature Name 35
  Double,                                 !- Feature Data Type 35
  84;                                     !- Feature Value 35

OS:Site,
  {7a529543-71c7-41fe-a697-3e916ca036e3}, !- Handle
  Denver Intl Ap_CO_USA,                  !- Name
  39.83,                                  !- Latitude {deg}
  -104.65,                                !- Longitude {deg}
  -7,                                     !- Time Zone {hr}
  1650,                                   !- Elevation {m}
  Suburbs;                                !- Terrain

OS:ClimateZones,
  {b91dbc36-15f6-4cbc-838c-5d5f2262a8c0}, !- Handle
  ,                                       !- Active Institution
  ,                                       !- Active Year
  ,                                       !- Climate Zone Institution Name 1
  ,                                       !- Climate Zone Document Name 1
  ,                                       !- Climate Zone Document Year 1
  ,                                       !- Climate Zone Value 1
  Building America,                       !- Climate Zone Institution Name 2
  ,                                       !- Climate Zone Document Name 2
  0,                                      !- Climate Zone Document Year 2
  Cold;                                   !- Climate Zone Value 2

OS:Site:WaterMainsTemperature,
  {4d5436cc-0160-47a0-84cd-23ff3c4e054d}, !- Handle
  Correlation,                            !- Calculation Method
  ,                                       !- Temperature Schedule Name
  10.8753424657535,                       !- Annual Average Outdoor Air Temperature {C}
  23.1524007936508;                       !- Maximum Difference In Monthly Average Outdoor Air Temperatures {deltaC}

OS:RunPeriodControl:DaylightSavingTime,
  {4846f1a9-c389-4d42-85ca-98a8a3de6106}, !- Handle
  3/12,                                   !- Start Date
  11/5;                                   !- End Date

OS:Site:GroundTemperature:Deep,
  {fd6ee6d0-1969-4dc0-8d06-1dae5029c2c4}, !- Handle
  10.8753424657535,                       !- January Deep Ground Temperature {C}
  10.8753424657535,                       !- February Deep Ground Temperature {C}
  10.8753424657535,                       !- March Deep Ground Temperature {C}
  10.8753424657535,                       !- April Deep Ground Temperature {C}
  10.8753424657535,                       !- May Deep Ground Temperature {C}
  10.8753424657535,                       !- June Deep Ground Temperature {C}
  10.8753424657535,                       !- July Deep Ground Temperature {C}
  10.8753424657535,                       !- August Deep Ground Temperature {C}
  10.8753424657535,                       !- September Deep Ground Temperature {C}
  10.8753424657535,                       !- October Deep Ground Temperature {C}
  10.8753424657535,                       !- November Deep Ground Temperature {C}
  10.8753424657535;                       !- December Deep Ground Temperature {C}

OS:Building,
  {893d3c9f-0c94-4909-a562-27403a6bdcbc}, !- Handle
  Building 1,                             !- Name
  ,                                       !- Building Sector Type
  270,                                    !- North Axis {deg}
  ,                                       !- Nominal Floor to Floor Height {m}
  ,                                       !- Space Type Name
  ,                                       !- Default Construction Set Name
  ,                                       !- Default Schedule Set Name
  3,                                      !- Standards Number of Stories
  2,                                      !- Standards Number of Above Ground Stories
  ,                                       !- Standards Template
  singlefamilydetached,                   !- Standards Building Type
  1;                                      !- Standards Number of Living Units

OS:AdditionalProperties,
  {269bddf8-3d76-4ed4-a7c6-4aaefab5bd7e}, !- Handle
  {893d3c9f-0c94-4909-a562-27403a6bdcbc}, !- Object Name
  Total Units Modeled,                    !- Feature Name 1
  Integer,                                !- Feature Data Type 1
  1,                                      !- Feature Value 1
  has_water_heater_flue,                  !- Feature Name 2
  Boolean,                                !- Feature Data Type 2
  true;                                   !- Feature Value 2

OS:ThermalZone,
  {5e34f2de-9af5-449c-988a-631c1cf47cee}, !- Handle
  living zone,                            !- Name
  ,                                       !- Multiplier
  ,                                       !- Ceiling Height {m}
  ,                                       !- Volume {m3}
  ,                                       !- Floor Area {m2}
  ,                                       !- Zone Inside Convection Algorithm
  ,                                       !- Zone Outside Convection Algorithm
  ,                                       !- Zone Conditioning Equipment List Name
  {d090da30-a508-44e7-9532-c780809bada4}, !- Zone Air Inlet Port List
  {7555a765-4c82-4e49-a76b-20c83db95ebc}, !- Zone Air Exhaust Port List
  {cefad321-1e6c-40de-a3c2-1b579e3f9d9b}, !- Zone Air Node Name
  {51bbc69c-7be9-4bc9-8100-ce01d1da7e5d}, !- Zone Return Air Port List
  ,                                       !- Primary Daylighting Control Name
  ,                                       !- Fraction of Zone Controlled by Primary Daylighting Control
  ,                                       !- Secondary Daylighting Control Name
  ,                                       !- Fraction of Zone Controlled by Secondary Daylighting Control
  ,                                       !- Illuminance Map Name
  ,                                       !- Group Rendering Name
  {e5881f34-ce47-4316-9e09-ebc558c5cd05}, !- Thermostat Name
  No;                                     !- Use Ideal Air Loads

OS:Node,
  {0a7a916f-2286-41d6-9093-52bde204b721}, !- Handle
  Node 1,                                 !- Name
  {cefad321-1e6c-40de-a3c2-1b579e3f9d9b}, !- Inlet Port
  ;                                       !- Outlet Port

OS:Connection,
  {cefad321-1e6c-40de-a3c2-1b579e3f9d9b}, !- Handle
  {ed8cf298-5a4a-4577-ab9c-fbd4eecc73f8}, !- Name
  {5e34f2de-9af5-449c-988a-631c1cf47cee}, !- Source Object
  11,                                     !- Outlet Port
  {0a7a916f-2286-41d6-9093-52bde204b721}, !- Target Object
  2;                                      !- Inlet Port

OS:PortList,
  {d090da30-a508-44e7-9532-c780809bada4}, !- Handle
  {b5d2aa7f-b142-4e50-b0ae-ba8d4102a4de}, !- Name
  {5e34f2de-9af5-449c-988a-631c1cf47cee}, !- HVAC Component
  {ffe59a3c-1356-4f92-ac47-453b296a2039}; !- Port 1

OS:PortList,
  {7555a765-4c82-4e49-a76b-20c83db95ebc}, !- Handle
  {a192ffd6-eafa-429f-9cc4-c3b7a7c63519}, !- Name
  {5e34f2de-9af5-449c-988a-631c1cf47cee}; !- HVAC Component

OS:PortList,
  {51bbc69c-7be9-4bc9-8100-ce01d1da7e5d}, !- Handle
  {8cfe68ea-1b54-4d6b-a67e-f9c823ce58cf}, !- Name
  {5e34f2de-9af5-449c-988a-631c1cf47cee}, !- HVAC Component
  {85f30fa1-099a-48b2-8738-37346f671d8b}; !- Port 1

OS:Sizing:Zone,
  {16f7ece5-bb6e-4e2d-a1d1-8e930920ea5d}, !- Handle
  {5e34f2de-9af5-449c-988a-631c1cf47cee}, !- Zone or ZoneList Name
  SupplyAirTemperature,                   !- Zone Cooling Design Supply Air Temperature Input Method
  14,                                     !- Zone Cooling Design Supply Air Temperature {C}
  11.11,                                  !- Zone Cooling Design Supply Air Temperature Difference {deltaC}
  SupplyAirTemperature,                   !- Zone Heating Design Supply Air Temperature Input Method
  40,                                     !- Zone Heating Design Supply Air Temperature {C}
  11.11,                                  !- Zone Heating Design Supply Air Temperature Difference {deltaC}
  0.0085,                                 !- Zone Cooling Design Supply Air Humidity Ratio {kg-H2O/kg-air}
  0.008,                                  !- Zone Heating Design Supply Air Humidity Ratio {kg-H2O/kg-air}
  ,                                       !- Zone Heating Sizing Factor
  ,                                       !- Zone Cooling Sizing Factor
  DesignDay,                              !- Cooling Design Air Flow Method
  ,                                       !- Cooling Design Air Flow Rate {m3/s}
  ,                                       !- Cooling Minimum Air Flow per Zone Floor Area {m3/s-m2}
  ,                                       !- Cooling Minimum Air Flow {m3/s}
  ,                                       !- Cooling Minimum Air Flow Fraction
  DesignDay,                              !- Heating Design Air Flow Method
  ,                                       !- Heating Design Air Flow Rate {m3/s}
  ,                                       !- Heating Maximum Air Flow per Zone Floor Area {m3/s-m2}
  ,                                       !- Heating Maximum Air Flow {m3/s}
  ,                                       !- Heating Maximum Air Flow Fraction
  ,                                       !- Design Zone Air Distribution Effectiveness in Cooling Mode
  ,                                       !- Design Zone Air Distribution Effectiveness in Heating Mode
  No,                                     !- Account for Dedicated Outdoor Air System
  NeutralSupplyAir,                       !- Dedicated Outdoor Air System Control Strategy
  autosize,                               !- Dedicated Outdoor Air Low Setpoint Temperature for Design {C}
  autosize;                               !- Dedicated Outdoor Air High Setpoint Temperature for Design {C}

OS:ZoneHVAC:EquipmentList,
  {c16130da-eecc-41eb-b966-4f89708f7e87}, !- Handle
  Zone HVAC Equipment List 1,             !- Name
  {5e34f2de-9af5-449c-988a-631c1cf47cee}, !- Thermal Zone
  SequentialLoad,                         !- Load Distribution Scheme
  {b801fec0-e0d1-4b86-ac35-9d25f103658b}, !- Zone Equipment 1
  2,                                      !- Zone Equipment Cooling Sequence 1
  2,                                      !- Zone Equipment Heating or No-Load Sequence 1
  ,                                       !- Zone Equipment Sequential Cooling Fraction Schedule Name 1
  ,                                       !- Zone Equipment Sequential Heating Fraction Schedule Name 1
  {5eb26ca8-ff97-4999-b864-6909cbf80189}, !- Zone Equipment 2
  1,                                      !- Zone Equipment Cooling Sequence 2
  1,                                      !- Zone Equipment Heating or No-Load Sequence 2
  ,                                       !- Zone Equipment Sequential Cooling Fraction Schedule Name 2
  ;                                       !- Zone Equipment Sequential Heating Fraction Schedule Name 2

OS:ThermalZone,
  {fc9e5a1b-bef6-41bf-849c-fb73016837fd}, !- Handle
  garage zone,                            !- Name
  ,                                       !- Multiplier
  ,                                       !- Ceiling Height {m}
  ,                                       !- Volume {m3}
  ,                                       !- Floor Area {m2}
  ,                                       !- Zone Inside Convection Algorithm
  ,                                       !- Zone Outside Convection Algorithm
  ,                                       !- Zone Conditioning Equipment List Name
  {4d0526a7-1e41-481f-a618-98b4ce04a411}, !- Zone Air Inlet Port List
  {0428ff0e-cb80-46e3-ac6c-f4029fe85694}, !- Zone Air Exhaust Port List
  {9bd08e96-4d1a-4c7d-b82b-89621bc2d558}, !- Zone Air Node Name
  {b527a829-8709-4aae-87d2-3c41531f3950}, !- Zone Return Air Port List
  ,                                       !- Primary Daylighting Control Name
  ,                                       !- Fraction of Zone Controlled by Primary Daylighting Control
  ,                                       !- Secondary Daylighting Control Name
  ,                                       !- Fraction of Zone Controlled by Secondary Daylighting Control
  ,                                       !- Illuminance Map Name
  ,                                       !- Group Rendering Name
  ,                                       !- Thermostat Name
  No;                                     !- Use Ideal Air Loads

OS:Node,
  {b03aedca-8003-4205-8c0e-f04005398173}, !- Handle
  Node 2,                                 !- Name
  {9bd08e96-4d1a-4c7d-b82b-89621bc2d558}, !- Inlet Port
  ;                                       !- Outlet Port

OS:Connection,
  {9bd08e96-4d1a-4c7d-b82b-89621bc2d558}, !- Handle
  {f6a06a63-6ee5-48f6-ad80-fc6a3563b4b2}, !- Name
  {fc9e5a1b-bef6-41bf-849c-fb73016837fd}, !- Source Object
  11,                                     !- Outlet Port
  {b03aedca-8003-4205-8c0e-f04005398173}, !- Target Object
  2;                                      !- Inlet Port

OS:PortList,
  {4d0526a7-1e41-481f-a618-98b4ce04a411}, !- Handle
  {f48a2d52-f569-4fa8-b311-35ecc0844aa8}, !- Name
  {fc9e5a1b-bef6-41bf-849c-fb73016837fd}; !- HVAC Component

OS:PortList,
  {0428ff0e-cb80-46e3-ac6c-f4029fe85694}, !- Handle
  {01d8e1dc-2d32-43c8-9c30-41b988df11ca}, !- Name
  {fc9e5a1b-bef6-41bf-849c-fb73016837fd}; !- HVAC Component

OS:PortList,
  {b527a829-8709-4aae-87d2-3c41531f3950}, !- Handle
  {aae714f5-baf6-4068-94a2-c64b372fe005}, !- Name
  {fc9e5a1b-bef6-41bf-849c-fb73016837fd}; !- HVAC Component

OS:Sizing:Zone,
  {c866864d-523d-488a-8253-df9f63fa6741}, !- Handle
  {fc9e5a1b-bef6-41bf-849c-fb73016837fd}, !- Zone or ZoneList Name
  SupplyAirTemperature,                   !- Zone Cooling Design Supply Air Temperature Input Method
  14,                                     !- Zone Cooling Design Supply Air Temperature {C}
  11.11,                                  !- Zone Cooling Design Supply Air Temperature Difference {deltaC}
  SupplyAirTemperature,                   !- Zone Heating Design Supply Air Temperature Input Method
  40,                                     !- Zone Heating Design Supply Air Temperature {C}
  11.11,                                  !- Zone Heating Design Supply Air Temperature Difference {deltaC}
  0.0085,                                 !- Zone Cooling Design Supply Air Humidity Ratio {kg-H2O/kg-air}
  0.008,                                  !- Zone Heating Design Supply Air Humidity Ratio {kg-H2O/kg-air}
  ,                                       !- Zone Heating Sizing Factor
  ,                                       !- Zone Cooling Sizing Factor
  DesignDay,                              !- Cooling Design Air Flow Method
  ,                                       !- Cooling Design Air Flow Rate {m3/s}
  ,                                       !- Cooling Minimum Air Flow per Zone Floor Area {m3/s-m2}
  ,                                       !- Cooling Minimum Air Flow {m3/s}
  ,                                       !- Cooling Minimum Air Flow Fraction
  DesignDay,                              !- Heating Design Air Flow Method
  ,                                       !- Heating Design Air Flow Rate {m3/s}
  ,                                       !- Heating Maximum Air Flow per Zone Floor Area {m3/s-m2}
  ,                                       !- Heating Maximum Air Flow {m3/s}
  ,                                       !- Heating Maximum Air Flow Fraction
  ,                                       !- Design Zone Air Distribution Effectiveness in Cooling Mode
  ,                                       !- Design Zone Air Distribution Effectiveness in Heating Mode
  No,                                     !- Account for Dedicated Outdoor Air System
  NeutralSupplyAir,                       !- Dedicated Outdoor Air System Control Strategy
  autosize,                               !- Dedicated Outdoor Air Low Setpoint Temperature for Design {C}
  autosize;                               !- Dedicated Outdoor Air High Setpoint Temperature for Design {C}

OS:ZoneHVAC:EquipmentList,
  {47b54782-3221-45f1-8264-a78228b206ae}, !- Handle
  Zone HVAC Equipment List 2,             !- Name
  {fc9e5a1b-bef6-41bf-849c-fb73016837fd}; !- Thermal Zone

OS:Space,
  {3ae83ae8-0368-48a8-803f-bc9967189de9}, !- Handle
  garage space,                           !- Name
  {60f15002-0ccc-4e20-8bf4-53a1230022d7}, !- Space Type Name
  ,                                       !- Default Construction Set Name
  ,                                       !- Default Schedule Set Name
  -0,                                     !- Direction of Relative North {deg}
  0,                                      !- X Origin {m}
  0,                                      !- Y Origin {m}
  0,                                      !- Z Origin {m}
  ,                                       !- Building Story Name
  {fc9e5a1b-bef6-41bf-849c-fb73016837fd}; !- Thermal Zone Name

OS:Surface,
  {cb3f4e22-6a3e-49c5-90d8-bcc9be94f05a}, !- Handle
  Surface 1,                              !- Name
  Floor,                                  !- Surface Type
  {36d8b714-8800-46b8-a270-8b9a3ed34436}, !- Construction Name
  {3ae83ae8-0368-48a8-803f-bc9967189de9}, !- Space Name
  Foundation,                             !- Outside Boundary Condition
  {b6393924-cc19-47dc-9111-b03409156969}, !- Outside Boundary Condition Object
  NoSun,                                  !- Sun Exposure
  NoWind,                                 !- Wind Exposure
  ,                                       !- View Factor to Ground
  ,                                       !- Number of Vertices
  12.4316830995045, -3.6576, 0,           !- X,Y,Z Vertex 1 {m}
  12.4316830995045, 3.6576, 0,            !- X,Y,Z Vertex 2 {m}
  16.0892830995045, 3.6576, 0,            !- X,Y,Z Vertex 3 {m}
  16.0892830995045, -3.6576, 0;           !- X,Y,Z Vertex 4 {m}

OS:Surface,
  {70ec1cfb-9b3c-4b8d-8e4b-78a6137943e2}, !- Handle
  Surface 2,                              !- Name
  Wall,                                   !- Surface Type
  {f7f7b9db-b7fb-4090-a97b-2ee726d743e6}, !- Construction Name
  {3ae83ae8-0368-48a8-803f-bc9967189de9}, !- Space Name
  Surface,                                !- Outside Boundary Condition
  {e4c36654-9de0-4efb-a251-d56dd867f305}, !- Outside Boundary Condition Object
  NoSun,                                  !- Sun Exposure
  NoWind,                                 !- Wind Exposure
  ,                                       !- View Factor to Ground
  ,                                       !- Number of Vertices
  12.4316830995045, 3.6576, 2.4384,       !- X,Y,Z Vertex 1 {m}
  12.4316830995045, 3.6576, 0,            !- X,Y,Z Vertex 2 {m}
  12.4316830995045, 0, 0,                 !- X,Y,Z Vertex 3 {m}
  12.4316830995045, 0, 2.4384;            !- X,Y,Z Vertex 4 {m}

OS:Surface,
  {61fdfdaa-0bb8-403a-9d5a-8f480d911b8f}, !- Handle
  Surface 3,                              !- Name
  Wall,                                   !- Surface Type
  {f7f7b9db-b7fb-4090-a97b-2ee726d743e6}, !- Construction Name
  {3ae83ae8-0368-48a8-803f-bc9967189de9}, !- Space Name
  Surface,                                !- Outside Boundary Condition
  {3bb4d137-9f37-43e9-8e95-64819853332e}, !- Outside Boundary Condition Object
  NoSun,                                  !- Sun Exposure