!- NOTE: Auto-generated from /test/osw_files/SFD_Successful_EnergyPlus_Run_AMY_PV_TwoDays.osw

OS:Version,
  {63b98e73-9db3-47bb-907e-c9a88483617a}, !- Handle
  2.8.0;                                  !- Version Identifier

OS:Building,
  {ce462646-c883-49f6-9018-1b323dc01c42}, !- Handle
  Building 1,                             !- Name
  ,                                       !- Building Sector Type
  22.5,                                   !- North Axis {deg}
  ,                                       !- Nominal Floor to Floor Height {m}
  ,                                       !- Space Type Name
  ,                                       !- Default Construction Set Name
  ,                                       !- Default Schedule Set Name
  2,                                      !- Standards Number of Stories
  2,                                      !- Standards Number of Above Ground Stories
  ,                                       !- Standards Template
  singlefamilydetached,                   !- Standards Building Type
  1;                                      !- Standards Number of Living Units

OS:Facility,
  {f824cf5c-75de-4ae3-80e3-7773dcd0542e}; !- Handle

OS:Site,
  {a1322a4a-805a-4b77-9abc-53cb593e6464}, !- Handle
  BRIDGEPORT-SIKORSKY-MEM_-_USA,          !- Name
  41.18,                                  !- Latitude {deg}
  -73.15,                                 !- Longitude {deg}
  -5,                                     !- Time Zone {hr}
  3,                                      !- Elevation {m}
  Suburbs;                                !- Terrain

OS:SimulationControl,
  {c8f70116-91a7-4274-8ab2-2d3854a9b56e}, !- Handle
  ,                                       !- Do Zone Sizing Calculation
  ,                                       !- Do System Sizing Calculation
  ,                                       !- Do Plant Sizing Calculation
  No;                                     !- Run Simulation for Sizing Periods

OS:Sizing:Parameters,
  {f62dfa73-1b08-4819-88d9-d92c14f191c5}, !- Handle
  1.25,                                   !- Heating Sizing Factor
  1.15;                                   !- Cooling Sizing Factor

OS:Timestep,
  {4d606ae1-9f6b-4692-bb0d-eee4f213d329}, !- Handle
  6;                                      !- Number of Timesteps per Hour

OS:ShadowCalculation,
  {7c75d1ea-2248-4508-b5ec-0d2cde2bcee2}, !- Handle
  20,                                     !- Calculation Frequency
  200;                                    !- Maximum Figures in Shadow Overlap Calculations

OS:HeatBalanceAlgorithm,
  {06701782-deed-4bce-a452-b1293dfd495a}, !- Handle
  ConductionTransferFunction,             !- Algorithm
  200;                                    !- Surface Temperature Upper Limit {C}

OS:RunPeriod,
  {e1d41cbe-883a-4df6-9949-2856e00c3613}, !- Handle
  Run Period 1,                           !- Name
  1,                                      !- Begin Month
  23,                                     !- Begin Day of Month
  1,                                      !- End Month
  24,                                     !- End Day of Month
  ,                                       !- Use Weather File Holidays and Special Days
  ,                                       !- Use Weather File Daylight Saving Period
  ,                                       !- Apply Weekend Holiday Rule
  ,                                       !- Use Weather File Rain Indicators
  ,                                       !- Use Weather File Snow Indicators
  ;                                       !- Number of Times Runperiod to be Repeated

OS:LifeCycleCost:Parameters,
  {6a45e346-dde9-4819-9efc-d772cd09bff6}, !- Handle
  ,                                       !- Analysis Type
  ,                                       !- Discounting Convention
  ,                                       !- Inflation Approach
  ,                                       !- Real Discount Rate
  ,                                       !- Nominal Discount Rate
  ,                                       !- Inflation
  ,                                       !- Base Date Month
  ,                                       !- Base Date Year
  ,                                       !- Service Date Month
  ,                                       !- Service Date Year
  ;                                       !- Length of Study Period in Years

OS:SurfaceConvectionAlgorithm:Outside,
  {864c5bec-75c0-4509-9256-1ae847b2fa98}, !- Handle
  DOE-2;                                  !- Algorithm

OS:SurfaceConvectionAlgorithm:Inside,
  {34f8142d-3398-44c1-9e6d-83cd881cc289}, !- Handle
  TARP;                                   !- Algorithm

OS:ZoneCapacitanceMultiplier:ResearchSpecial,
  {52c5ef7a-e290-4dd3-b285-6eebd0290905}, !- Handle
  ,                                       !- Temperature Capacity Multiplier
  15,                                     !- Humidity Capacity Multiplier
  ;                                       !- Carbon Dioxide Capacity Multiplier

OS:WeatherFile,
  {229c75b5-ef9f-4553-9a80-c39bc0aeb94b}, !- Handle
  BRIDGEPORT-SIKORSKY-MEM,                !- City
  -,                                      !- State Province Region
  USA,                                    !- Country
  Custom-725040,                          !- Data Source
  725040,                                 !- WMO Number
  41.18,                                  !- Latitude {deg}
  -73.15,                                 !- Longitude {deg}
  -5,                                     !- Time Zone {hr}
  3,                                      !- Elevation {m}
  file:../tests/CT_BRIDGEPORT-SIKORSKY-MEM_725040_18.epw, !- Url
  7279F742;                               !- Checksum

OS:AdditionalProperties,
  {224bd1bc-8da0-4b39-8d59-f7356e57e67f}, !- Handle
  {229c75b5-ef9f-4553-9a80-c39bc0aeb94b}, !- Object Name
  EPWHeaderCity,                          !- Feature Name 1
  String,                                 !- Feature Data Type 1
  BRIDGEPORT-SIKORSKY-MEM,                !- Feature Value 1
  EPWHeaderState,                         !- Feature Name 2
  String,                                 !- Feature Data Type 2
  -,                                      !- Feature Value 2
  EPWHeaderCountry,                       !- Feature Name 3
  String,                                 !- Feature Data Type 3
  USA,                                    !- Feature Value 3
  EPWHeaderDataSource,                    !- Feature Name 4
  String,                                 !- Feature Data Type 4
  Custom-725040,                          !- Feature Value 4
  EPWHeaderStation,                       !- Feature Name 5
  String,                                 !- Feature Data Type 5
  725040,                                 !- Feature Value 5
  EPWHeaderLatitude,                      !- Feature Name 6
  Double,                                 !- Feature Data Type 6
  41.18,                                  !- Feature Value 6
  EPWHeaderLongitude,                     !- Feature Name 7
  Double,                                 !- Feature Data Type 7
  -73.150000000000006,                    !- Feature Value 7
  EPWHeaderTimezone,                      !- Feature Name 8
  Double,                                 !- Feature Data Type 8
  -5,                                     !- Feature Value 8
  EPWHeaderAltitude,                      !- Feature Name 9
  Double,                                 !- Feature Data Type 9
  9.8425196850393704,                     !- Feature Value 9
  EPWHeaderLocalPressure,                 !- Feature Name 10
  Double,                                 !- Feature Data Type 10
  0.99963786086380269,                    !- Feature Value 10
  EPWHeaderRecordsPerHour,                !- Feature Name 11
  Double,                                 !- Feature Data Type 11
  1,                                      !- Feature Value 11
  EPWDataAnnualAvgDrybulb,                !- Feature Name 12
  Double,                                 !- Feature Data Type 12
  53.777595890410936,                     !- Feature Value 12
  EPWDataAnnualMinDrybulb,                !- Feature Name 13
  Double,                                 !- Feature Data Type 13
  -0.94000000000000483,                   !- Feature Value 13
  EPWDataAnnualMaxDrybulb,                !- Feature Name 14
  Double,                                 !- Feature Data Type 14
  93.019999999999996,                     !- Feature Value 14
  EPWDataCDD50F,                          !- Feature Name 15
  Double,                                 !- Feature Data Type 15
  3505.9949999999994,                     !- Feature Value 15
  EPWDataCDD65F,                          !- Feature Name 16
  Double,                                 !- Feature Data Type 16
  1113.7050000000004,                     !- Feature Value 16
  EPWDataHDD50F,                          !- Feature Name 17
  Double,                                 !- Feature Data Type 17
  2127.1724999999979,                     !- Feature Value 17
  EPWDataHDD65F,                          !- Feature Name 18
  Double,                                 !- Feature Data Type 18
  5209.8824999999961,                     !- Feature Value 18
  EPWDataAnnualAvgWindspeed,              !- Feature Name 19
  Double,                                 !- Feature Data Type 19
  3.9162557077624434,                     !- Feature Value 19
  EPWDataMonthlyAvgDrybulbs,              !- Feature Name 20
  String,                                 !- Feature Data Type 20
  29.102338709677426&#4437.99705357142857&#4438.87798387096773&#4445.95650000000001&#4461.71814516129031&#4468.77200000000002&#4476.01895161290321&#4477.70137096774184&#4469.64100000000005&#4456.75387096774196&#4443.64725000000001&#4438.033870967741926, !- Feature Value 20
  EPWDataGroundMonthlyTemps,              !- Feature Name 21
  String,                                 !- Feature Data Type 21
  44.98522699057855&#4441.26825439696694&#4440.97058590181376&#4442.734479321402716&#4449.81552848237112&#4456.863591112408415&#4462.97388473423763&#4466.84460546405757&#4467.17344445041346&#4464.02526371606774&#4458.07078616903874&#4451.23892939322724, !- Feature Value 21
  EPWDataWSF,                             !- Feature Name 22
  Double,                                 !- Feature Data Type 22
  0.58999999999999997,                    !- Feature Value 22
  EPWDataMonthlyAvgDailyHighDrybulbs,     !- Feature Name 23
  String,                                 !- Feature Data Type 23
  35.64645161290323&#4444.96&#4445.05290322580645&#4452.97&#4469.8232258064516&#4475.614&#4482.71935483870968&#4484.21161290322581&#4474.774&#4463.16322580645162&#4449.208&#4443.73483870967742, !- Feature Value 23
  EPWDataMonthlyAvgDailyLowDrybulbs,      !- Feature Name 24
  String,                                 !- Feature Data Type 24
  21.885161290322586&#4431.556428571428572&#4433.26&#4438.558&#4454.90064516129033&#4461.688&#4469.23677419354838&#4471.52451612903226&#4464.028&#4449.71548387096774&#4437.904&#4431.773548387096774, !- Feature Value 24
  EPWDesignHeatingDrybulb,                !- Feature Name 25
  Double,                                 !- Feature Data Type 25
  15.800000000000001,                     !- Feature Value 25
  EPWDesignHeatingWindspeed,              !- Feature Name 26
  Double,                                 !- Feature Data Type 26
  11.1,                                   !- Feature Value 26
  EPWDesignCoolingDrybulb,                !- Feature Name 27
  Double,                                 !- Feature Data Type 27
  84.379999999999995,                     !- Feature Value 27
  EPWDesignCoolingWetbulb,                !- Feature Name 28
  Double,                                 !- Feature Data Type 28
  71.599999999999994,                     !- Feature Value 28
  EPWDesignCoolingHumidityRatio,          !- Feature Name 29
  Double,                                 !- Feature Data Type 29
  0.01358150401258665,                    !- Feature Value 29
  EPWDesignCoolingWindspeed,              !- Feature Name 30
  Double,                                 !- Feature Data Type 30
  4.7999999999999998,                     !- Feature Value 30
  EPWDesignDailyTemperatureRange,         !- Feature Name 31
  Double,                                 !- Feature Data Type 31
  13.860000000000001,                     !- Feature Value 31
  EPWDesignDehumidDrybulb,                !- Feature Name 32
  Double,                                 !- Feature Data Type 32
  77.180000000000007,                     !- Feature Value 32
  EPWDesignDehumidHumidityRatio,          !- Feature Name 33
  Double,                                 !- Feature Data Type 33
  0.016781754781273545,                   !- Feature Value 33
  EPWDesignCoolingDirectNormal,           !- Feature Name 34
  Double,                                 !- Feature Data Type 34
  963,                                    !- Feature Value 34
  EPWDesignCoolingDiffuseHorizontal,      !- Feature Name 35
  Double,                                 !- Feature Data Type 35
  104;                                    !- Feature Value 35

OS:YearDescription,
  {dbdb94e1-fa83-43f1-9e5c-51321782513d}, !- Handle
  2018,                                   !- Calendar Year
  ,                                       !- Day of Week for Start Day
  ;                                       !- Is Leap Year

OS:ClimateZones,
  {a908af1d-c7c2-4d86-b2c4-1555585d13dc}, !- Handle
  ,                                       !- Active Institution
  ,                                       !- Active Year
  ,                                       !- Climate Zone Institution Name 1
  ,                                       !- Climate Zone Document Name 1
  ,                                       !- Climate Zone Document Year 1
  ,                                       !- Climate Zone Value 1
  Building America,                       !- Climate Zone Institution Name 2
  ,                                       !- Climate Zone Document Name 2
  0,                                      !- Climate Zone Document Year 2
  Cold;                                   !- Climate Zone Value 2

OS:Site:WaterMainsTemperature,
  {5032de51-cffc-46a3-aab0-8185cc7c152a}, !- Handle
  Correlation,                            !- Calculation Method
  ,                                       !- Temperature Schedule Name
  12.0986643835616,                       !- Annual Average Outdoor Air Temperature {C}
  26.9994623655913;                       !- Maximum Difference In Monthly Average Outdoor Air Temperatures {deltaC}

OS:RunPeriodControl:DaylightSavingTime,
  {920aa98c-b2d0-491f-ba25-e4310359bc0e}, !- Handle
  4/7,                                    !- Start Date
  10/26;                                  !- End Date

OS:Site:GroundTemperature:Deep,
  {41d00007-72df-40c5-8699-a27c54ce74c6}, !- Handle
  12.0986643835616,                       !- January Deep Ground Temperature {C}
  12.0986643835616,                       !- February Deep Ground Temperature {C}
  12.0986643835616,                       !- March Deep Ground Temperature {C}
  12.0986643835616,                       !- April Deep Ground Temperature {C}
  12.0986643835616,                       !- May Deep Ground Temperature {C}
  12.0986643835616,                       !- June Deep Ground Temperature {C}
  12.0986643835616,                       !- July Deep Ground Temperature {C}
  12.0986643835616,                       !- August Deep Ground Temperature {C}
  12.0986643835616,                       !- September Deep Ground Temperature {C}
  12.0986643835616,                       !- October Deep Ground Temperature {C}
  12.0986643835616,                       !- November Deep Ground Temperature {C}
  12.0986643835616;                       !- December Deep Ground Temperature {C}

OS:ThermalZone,
  {d205c2b9-31d1-464d-a240-0edfa016ca6b}, !- Handle
  living zone,                            !- Name
  ,                                       !- Multiplier
  ,                                       !- Ceiling Height {m}
  ,                                       !- Volume {m3}
  ,                                       !- Floor Area {m2}
  ,                                       !- Zone Inside Convection Algorithm
  ,                                       !- Zone Outside Convection Algorithm
  ,                                       !- Zone Conditioning Equipment List Name
  {d982b63c-52c0-4ccf-a736-138edeb614ff}, !- Zone Air Inlet Port List
  {81b097f7-5061-455d-aedf-400b48762e6d}, !- Zone Air Exhaust Port List
  {d4489902-4141-484e-9206-c019a83ce14a}, !- Zone Air Node Name
  {a918ab4b-9eac-4d4e-957a-d0433af3103d}, !- Zone Return Air Port List
  ,                                       !- Primary Daylighting Control Name
  ,                                       !- Fraction of Zone Controlled by Primary Daylighting Control
  ,                                       !- Secondary Daylighting Control Name
  ,                                       !- Fraction of Zone Controlled by Secondary Daylighting Control
  ,                                       !- Illuminance Map Name
  ,                                       !- Group Rendering Name
  {fc422a32-727a-4764-ace1-c5c945daa809}, !- Thermostat Name
  No;                                     !- Use Ideal Air Loads

OS:Node,
  {d1b13670-5c98-4920-86d9-af827295af2f}, !- Handle
  Node 1,                                 !- Name
  {d4489902-4141-484e-9206-c019a83ce14a}, !- Inlet Port
  ;                                       !- Outlet Port

OS:Connection,
  {d4489902-4141-484e-9206-c019a83ce14a}, !- Handle
  {35db215a-5282-47ee-a7c0-3383791748b7}, !- Name
  {d205c2b9-31d1-464d-a240-0edfa016ca6b}, !- Source Object
  11,                                     !- Outlet Port
  {d1b13670-5c98-4920-86d9-af827295af2f}, !- Target Object
  2;                                      !- Inlet Port

OS:PortList,
  {d982b63c-52c0-4ccf-a736-138edeb614ff}, !- Handle
  {17124ed0-7b6c-423b-b419-1eddc4ac7f95}, !- Name
  {d205c2b9-31d1-464d-a240-0edfa016ca6b}, !- HVAC Component
  {f03e2204-da9f-4a1f-ae86-cd0d2ea7bfe3}, !- Port 1
  {c99db653-bceb-440d-8cf7-992e015f017e}; !- Port 2

OS:PortList,
  {81b097f7-5061-455d-aedf-400b48762e6d}, !- Handle
  {ba3bcdc8-45e1-4511-8d3c-21ac7f831294}, !- Name
  {d205c2b9-31d1-464d-a240-0edfa016ca6b}; !- HVAC Component

OS:PortList,
  {a918ab4b-9eac-4d4e-957a-d0433af3103d}, !- Handle
  {24324035-b4aa-4c3e-826b-67066d176c89}, !- Name
  {d205c2b9-31d1-464d-a240-0edfa016ca6b}, !- HVAC Component
  {bc062129-7cfa-442d-9bbd-9c9d5ee7b63d}, !- Port 1
  {6f4eed3e-46fb-486d-9068-1b742df4c661}; !- Port 2

OS:Sizing:Zone,
  {db6f0246-9404-4ba4-a22f-d45b24511c57}, !- Handle
  {d205c2b9-31d1-464d-a240-0edfa016ca6b}, !- Zone or ZoneList Name
  SupplyAirTemperature,                   !- Zone Cooling Design Supply Air Temperature Input Method
  14,                                     !- Zone Cooling Design Supply Air Temperature {C}
  11.11,                                  !- Zone Cooling Design Supply Air Temperature Difference {deltaC}
  SupplyAirTemperature,                   !- Zone Heating Design Supply Air Temperature Input Method
  40,                                     !- Zone Heating Design Supply Air Temperature {C}
  11.11,                                  !- Zone Heating Design Supply Air Temperature Difference {deltaC}
  0.0085,                                 !- Zone Cooling Design Supply Air Humidity Ratio {kg-H2O/kg-air}
  0.008,                                  !- Zone Heating Design Supply Air Humidity Ratio {kg-H2O/kg-air}
  ,                                       !- Zone Heating Sizing Factor
  ,                                       !- Zone Cooling Sizing Factor
  DesignDay,                              !- Cooling Design Air Flow Method
  ,                                       !- Cooling Design Air Flow Rate {m3/s}
  ,                                       !- Cooling Minimum Air Flow per Zone Floor Area {m3/s-m2}
  ,                                       !- Cooling Minimum Air Flow {m3/s}
  ,                                       !- Cooling Minimum Air Flow Fraction
  DesignDay,                              !- Heating Design Air Flow Method
  ,                                       !- Heating Design Air Flow Rate {m3/s}
  ,                                       !- Heating Maximum Air Flow per Zone Floor Area {m3/s-m2}
  ,                                       !- Heating Maximum Air Flow {m3/s}
  ,                                       !- Heating Maximum Air Flow Fraction
  ,                                       !- Design Zone Air Distribution Effectiveness in Cooling Mode
  ,                                       !- Design Zone Air Distribution Effectiveness in Heating Mode
  No,                                     !- Account for Dedicated Outdoor Air System
  NeutralSupplyAir,                       !- Dedicated Outdoor Air System Control Strategy
  autosize,                               !- Dedicated Outdoor Air Low Setpoint Temperature for Design {C}
  autosize;                               !- Dedicated Outdoor Air High Setpoint Temperature for Design {C}

OS:ZoneHVAC:EquipmentList,
  {a537e571-782d-42d0-a011-207342fbb6a1}, !- Handle
  Zone HVAC Equipment List 1,             !- Name
  {d205c2b9-31d1-464d-a240-0edfa016ca6b}, !- Thermal Zone
  SequentialLoad,                         !- Load Distribution Scheme
  {1380315d-0a22-454a-ac8b-349ab9bb5692}, !- Zone Equipment 1
  1,                                      !- Zone Equipment Cooling Sequence 1
  1,                                      !- Zone Equipment Heating or No-Load Sequence 1
  ,                                       !- Zone Equipment Sequential Cooling Fraction 1
  ,                                       !- Zone Equipment Sequential Heating Fraction 1
  {08beaac5-9367-47e6-bfb2-edb17948e166}, !- Zone Equipment 2
  2,                                      !- Zone Equipment Cooling Sequence 2
  2,                                      !- Zone Equipment Heating or No-Load Sequence 2
  ,                                       !- Zone Equipment Sequential Cooling Fraction 2
  ;                                       !- Zone Equipment Sequential Heating Fraction 2

OS:Space,
  {3f25c057-4d70-433e-9c13-1514a8aab895}, !- Handle
  living space,                           !- Name
  {47479159-64ea-477f-b4dc-6ed7914d918e}, !- Space Type Name
  ,                                       !- Default Construction Set Name
  ,                                       !- Default Schedule Set Name
  -0,                                     !- Direction of Relative North {deg}
  0,                                      !- X Origin {m}
  0,                                      !- Y Origin {m}
  0,                                      !- Z Origin {m}
  ,                                       !- Building Story Name
  {d205c2b9-31d1-464d-a240-0edfa016ca6b}, !- Thermal Zone Name
  ,                                       !- Part of Total Floor Area
  ,                                       !- Design Specification Outdoor Air Object Name
  {72cc82e2-dfd1-4cb1-8a1f-b6d8ba229268}; !- Building Unit Name

OS:Surface,
  {073a4f5a-968f-4217-b8af-f18d1cb11ee6}, !- Handle
  Surface 1,                              !- Name
  Floor,                                  !- Surface Type
  {b70fd38f-9404-4cda-b37f-a942144f9310}, !- Construction Name
  {3f25c057-4d70-433e-9c13-1514a8aab895}, !- Space Name
  Foundation,                             !- Outside Boundary Condition
  {bbc3345a-d4b2-4585-b01c-7da2559514b6}, !- Outside Boundary Condition Object
  NoSun,                                  !- Sun Exposure
  NoWind,                                 !- Wind Exposure
  ,                                       !- View Factor to Ground
  ,                                       !- Number of Vertices
  0, 0, 0,                                !- X,Y,Z Vertex 1 {m}
  0, 1.524, 0,                            !- X,Y,Z Vertex 2 {m}
  3.048, 1.524, 0,                        !- X,Y,Z Vertex 3 {m}
  3.048, 0, 0;                            !- X,Y,Z Vertex 4 {m}

OS:Surface,
  {ce7c520e-a2c6-4a44-b399-d75bdeb683dd}, !- Handle
  Surface 2,                              !- Name
  Wall,                                   !- Surface Type
  {094320db-6022-400c-b33c-c9d36494193e}, !- Construction Name
  {3f25c057-4d70-433e-9c13-1514a8aab895}, !- Space Name
  Outdoors,                               !- Outside Boundary Condition
  ,                                       !- Outside Boundary Condition Object
  SunExposed,                             !- Sun Exposure
  WindExposed,                            !- Wind Exposure
  ,                                       !- View Factor to Ground
  ,                                       !- Number of Vertices
  0, 1.524, 2.4384,                       !- X,Y,Z Vertex 1 {m}
  0, 1.524, 0,                            !- X,Y,Z Vertex 2 {m}
  0, 0, 0,                                !- X,Y,Z Vertex 3 {m}
  0, 0, 2.4384;                           !- X,Y,Z Vertex 4 {m}

OS:Surface,
  {419ab68a-b270-411f-b991-55b45a311c9c}, !- Handle
  Surface 3,                              !- Name
  Wall,                                   !- Surface Type
  {094320db-6022-400c-b33c-c9d36494193e}, !- Construction Name
  {3f25c057-4d70-433e-9c13-1514a8aab895}, !- Space Name
  Outdoors,                               !- Outside Boundary Condition
  ,                                       !- Outside Boundary Condition Object
  SunExposed,                             !- Sun Exposure
  WindExposed,                            !- Wind Exposure
  ,                                       !- View Factor to Ground
  ,                                       !- Number of Vertices
  3.048, 1.524, 2.4384,                   !- X,Y,Z Vertex 1 {m}
  3.048, 1.524, 0,                        !- X,Y,Z Vertex 2 {m}
  0, 1.524, 0,                            !- X,Y,Z Vertex 3 {m}
  0, 1.524, 2.4384;                       !- X,Y,Z Vertex 4 {m}

OS:Surface,
  {69a29113-ecd2-4183-a519-699501bd7df2}, !- Handle
  Surface 4,                              !- Name
  Wall,                                   !- Surface Type
  {094320db-6022-400c-b33c-c9d36494193e}, !- Construction Name
  {3f25c057-4d70-433e-9c13-1514a8aab895}, !- Space Name
  Outdoors,                               !- Outside Boundary Condition
  ,                                       !- Outside Boundary Condition Object
  SunExposed,                             !- Sun Exposure
  WindExposed,                            !- Wind Exposure
  ,                                       !- View Factor to Ground
  ,                                       !- Number of Vertices
  3.048, 0, 2.4384,                       !- X,Y,Z Vertex 1 {m}
  3.048, 0, 0,                            !- X,Y,Z Vertex 2 {m}
  3.048, 1.524, 0,                        !- X,Y,Z Vertex 3 {m}
  3.048, 1.524, 2.4384;                   !- X,Y,Z Vertex 4 {m}

OS:Surface,
  {4ce95120-f474-44b7-a49a-4f2c44f77b08}, !- Handle
  Surface 5,                              !- Name
  Wall,                                   !- Surface Type
  {094320db-6022-400c-b33c-c9d36494193e}, !- Construction Name
  {3f25c057-4d70-433e-9c13-1514a8aab895}, !- Space Name
  Outdoors,                               !- Outside Boundary Condition
  ,                                       !- Outside Boundary Condition Object
  SunExposed,                             !- Sun Exposure
  WindExposed,                            !- Wind Exposure
  ,                                       !- View Factor to Ground
  ,                                       !- Number of Vertices
  3.048, 0, 0,                            !- X,Y,Z Vertex 1 {m}
  3.048, 0, 2.4384,                       !- X,Y,Z Vertex 2 {m}
  1.04865714285714, 0, 2.4384,            !- X,Y,Z Vertex 3 {m}
  1.04865714285714, 0, 0;                 !- X,Y,Z Vertex 4 {m}

OS:Surface,
  {ecd98fe7-3e71-41a9-90ca-c55c25728842}, !- Handle
  Surface 6,                              !- Name
  RoofCeiling,                            !- Surface Type
  {69b91f83-38e8-4e57-9774-cc97fbb0b0f8}, !- Construction Name
  {3f25c057-4d70-433e-9c13-1514a8aab895}, !- Space Name
  Surface,                                !- Outside Boundary Condition
  {de1f727d-f2d1-4d9a-bdf4-2727a53c1191}, !- Outside Boundary Condition Object
  NoSun,                                  !- Sun Exposure
  NoWind,                                 !- Wind Exposure
  ,                                       !- View Factor to Ground
  ,                                       !- Number of Vertices
  3.048, 0, 2.4384,                       !- X,Y,Z Vertex 1 {m}
  3.048, 1.524, 2.4384,                   !- X,Y,Z Vertex 2 {m}
  0, 1.524, 2.4384,                       !- X,Y,Z Vertex 3 {m}
  0, 0, 2.4384;                           !- X,Y,Z Vertex 4 {m}

OS:SpaceType,
  {47479159-64ea-477f-b4dc-6ed7914d918e}, !- Handle
  Space Type 1,                           !- Name
  ,                                       !- Default Construction Set Name
  ,                                       !- Default Schedule Set Name
  ,                                       !- Group Rendering Name
  ,                                       !- Design Specification Outdoor Air Object Name
  ,                                       !- Standards Template
  ,                                       !- Standards Building Type
  living;                                 !- Standards Space Type

OS:Space,
  {4d636ea7-dd70-4d7a-add8-609cc9618e63}, !- Handle
  living space|story 2,                   !- Name
  {47479159-64ea-477f-b4dc-6ed7914d918e}, !- Space Type Name
  ,                                       !- Default Construction Set Name
  ,                                       !- Default Schedule Set Name
  -0,                                     !- Direction of Relative North {deg}
  0,                                      !- X Origin {m}