!- NOTE: Auto-generated from /test/osw_files/SFD_1story_UB_UA_GRG_ACV_FuelFurnace_HPWH.osw

OS:Version,
  {169961ed-3b59-417d-9f0b-3e1ea2cb43e5}, !- Handle
  2.9.0;                                  !- Version Identifier

OS:SimulationControl,
  {e784e6eb-d9aa-4c8a-a9cd-9c39d1183fbd}, !- Handle
  ,                                       !- Do Zone Sizing Calculation
  ,                                       !- Do System Sizing Calculation
  ,                                       !- Do Plant Sizing Calculation
  No;                                     !- Run Simulation for Sizing Periods

OS:Timestep,
  {00f15b88-9a25-494a-90b9-05cf473b4e5b}, !- Handle
  6;                                      !- Number of Timesteps per Hour

OS:ShadowCalculation,
  {fc70fa55-e15c-4a1e-9777-4a3bae1b6071}, !- Handle
  20,                                     !- Calculation Frequency
  200;                                    !- Maximum Figures in Shadow Overlap Calculations

OS:SurfaceConvectionAlgorithm:Outside,
  {c5ff1a3c-e23a-43bd-a311-9e62840b87f5}, !- Handle
  DOE-2;                                  !- Algorithm

OS:SurfaceConvectionAlgorithm:Inside,
  {130892f8-ce60-4f73-9b82-896dc7aa25d8}, !- Handle
  TARP;                                   !- Algorithm

OS:ZoneCapacitanceMultiplier:ResearchSpecial,
  {1ecc8ca1-4198-48ec-9fc4-5654343a6cb9}, !- Handle
  ,                                       !- Temperature Capacity Multiplier
  15,                                     !- Humidity Capacity Multiplier
  ;                                       !- Carbon Dioxide Capacity Multiplier

OS:RunPeriod,
  {82afc11c-9943-45b8-bc30-1898a94091ed}, !- Handle
  Run Period 1,                           !- Name
  1,                                      !- Begin Month
  1,                                      !- Begin Day of Month
  12,                                     !- End Month
  31,                                     !- End Day of Month
  ,                                       !- Use Weather File Holidays and Special Days
  ,                                       !- Use Weather File Daylight Saving Period
  ,                                       !- Apply Weekend Holiday Rule
  ,                                       !- Use Weather File Rain Indicators
  ,                                       !- Use Weather File Snow Indicators
  ;                                       !- Number of Times Runperiod to be Repeated

OS:YearDescription,
  {30acb0a5-0ab6-4f5b-9adc-3264795ff892}, !- Handle
  2007,                                   !- Calendar Year
  ,                                       !- Day of Week for Start Day
  ;                                       !- Is Leap Year

OS:WeatherFile,
  {6b0b940e-7c43-4014-9e0a-e41cc9705987}, !- Handle
  Denver Intl Ap,                         !- City
  CO,                                     !- State Province Region
  USA,                                    !- Country
  TMY3,                                   !- Data Source
  725650,                                 !- WMO Number
  39.83,                                  !- Latitude {deg}
  -104.65,                                !- Longitude {deg}
  -7,                                     !- Time Zone {hr}
  1650,                                   !- Elevation {m}
  file:../weather/USA_CO_Denver.Intl.AP.725650_TMY3.epw, !- Url
  E23378AA;                               !- Checksum

OS:AdditionalProperties,
  {12775d45-ec2c-4a63-83ec-f5d8fabd8f0e}, !- Handle
  {6b0b940e-7c43-4014-9e0a-e41cc9705987}, !- Object Name
  EPWHeaderCity,                          !- Feature Name 1
  String,                                 !- Feature Data Type 1
  Denver Intl Ap,                         !- Feature Value 1
  EPWHeaderState,                         !- Feature Name 2
  String,                                 !- Feature Data Type 2
  CO,                                     !- Feature Value 2
  EPWHeaderCountry,                       !- Feature Name 3
  String,                                 !- Feature Data Type 3
  USA,                                    !- Feature Value 3
  EPWHeaderDataSource,                    !- Feature Name 4
  String,                                 !- Feature Data Type 4
  TMY3,                                   !- Feature Value 4
  EPWHeaderStation,                       !- Feature Name 5
  String,                                 !- Feature Data Type 5
  725650,                                 !- Feature Value 5
  EPWHeaderLatitude,                      !- Feature Name 6
  Double,                                 !- Feature Data Type 6
  39.829999999999998,                     !- Feature Value 6
  EPWHeaderLongitude,                     !- Feature Name 7
  Double,                                 !- Feature Data Type 7
  -104.65000000000001,                    !- Feature Value 7
  EPWHeaderTimezone,                      !- Feature Name 8
  Double,                                 !- Feature Data Type 8
  -7,                                     !- Feature Value 8
  EPWHeaderAltitude,                      !- Feature Name 9
  Double,                                 !- Feature Data Type 9
  5413.3858267716532,                     !- Feature Value 9
  EPWHeaderLocalPressure,                 !- Feature Name 10
  Double,                                 !- Feature Data Type 10
  0.81937567683596546,                    !- Feature Value 10
  EPWHeaderRecordsPerHour,                !- Feature Name 11
  Double,                                 !- Feature Data Type 11
  0,                                      !- Feature Value 11
  EPWDataAnnualAvgDrybulb,                !- Feature Name 12
  Double,                                 !- Feature Data Type 12
  51.575616438356228,                     !- Feature Value 12
  EPWDataAnnualMinDrybulb,                !- Feature Name 13
  Double,                                 !- Feature Data Type 13
  -2.9200000000000017,                    !- Feature Value 13
  EPWDataAnnualMaxDrybulb,                !- Feature Name 14
  Double,                                 !- Feature Data Type 14
  104,                                    !- Feature Value 14
  EPWDataCDD50F,                          !- Feature Name 15
  Double,                                 !- Feature Data Type 15
  3072.2925000000005,                     !- Feature Value 15
  EPWDataCDD65F,                          !- Feature Name 16
  Double,                                 !- Feature Data Type 16
  883.62000000000035,                     !- Feature Value 16
  EPWDataHDD50F,                          !- Feature Name 17
  Double,                                 !- Feature Data Type 17
  2497.1925000000001,                     !- Feature Value 17
  EPWDataHDD65F,                          !- Feature Name 18
  Double,                                 !- Feature Data Type 18
  5783.5200000000013,                     !- Feature Value 18
  EPWDataAnnualAvgWindspeed,              !- Feature Name 19
  Double,                                 !- Feature Data Type 19
  3.9165296803649667,                     !- Feature Value 19
  EPWDataMonthlyAvgDrybulbs,              !- Feature Name 20
  String,                                 !- Feature Data Type 20
  33.4191935483871&#4431.90142857142857&#4443.02620967741937&#4442.48624999999999&#4459.877741935483854&#4473.57574999999997&#4472.07975806451608&#4472.70008064516134&#4466.49200000000006&#4450.079112903225806&#4437.218250000000005&#4434.582177419354835, !- Feature Value 20
  EPWDataGroundMonthlyTemps,              !- Feature Name 21
  String,                                 !- Feature Data Type 21
  44.08306285945173&#4440.89570904991865&#4440.64045432632048&#4442.153016571250646&#4448.225111118704206&#4454.268919273837525&#4459.508577937551024&#4462.82777283423508&#4463.10975667174995&#4460.41014950381947&#4455.304105212311526&#4449.445696474514364, !- Feature Value 21
  EPWDataWSF,                             !- Feature Name 22
  Double,                                 !- Feature Data Type 22
  0.58999999999999997,                    !- Feature Value 22
  EPWDataMonthlyAvgDailyHighDrybulbs,     !- Feature Name 23
  String,                                 !- Feature Data Type 23
  47.41032258064516&#4446.58642857142857&#4455.15032258064517&#4453.708&#4472.80193548387098&#4488.67600000000002&#4486.1858064516129&#4485.87225806451613&#4482.082&#4463.18064516129033&#4448.73400000000001&#4448.87935483870968, !- Feature Value 23
  EPWDataMonthlyAvgDailyLowDrybulbs,      !- Feature Name 24
  String,                                 !- Feature Data Type 24
  19.347741935483874&#4419.856428571428573&#4430.316129032258065&#4431.112&#4447.41612903225806&#4457.901999999999994&#4459.063870967741934&#4460.956774193548384&#4452.352000000000004&#4438.41612903225806&#4427.002000000000002&#4423.02903225806451, !- Feature Value 24
  EPWDesignHeatingDrybulb,                !- Feature Name 25
  Double,                                 !- Feature Data Type 25
  12.02,                                  !- Feature Value 25
  EPWDesignHeatingWindspeed,              !- Feature Name 26
  Double,                                 !- Feature Data Type 26
  2.8062500000000004,                     !- Feature Value 26
  EPWDesignCoolingDrybulb,                !- Feature Name 27
  Double,                                 !- Feature Data Type 27
  91.939999999999998,                     !- Feature Value 27
  EPWDesignCoolingWetbulb,                !- Feature Name 28
  Double,                                 !- Feature Data Type 28
  59.95131430195849,                      !- Feature Value 28
  EPWDesignCoolingHumidityRatio,          !- Feature Name 29
  Double,                                 !- Feature Data Type 29
  0.0059161086834698092,                  !- Feature Value 29
  EPWDesignCoolingWindspeed,              !- Feature Name 30
  Double,                                 !- Feature Data Type 30
  3.7999999999999989,                     !- Feature Value 30
  EPWDesignDailyTemperatureRange,         !- Feature Name 31
  Double,                                 !- Feature Data Type 31
  24.915483870967748,                     !- Feature Value 31
  EPWDesignDehumidDrybulb,                !- Feature Name 32
  Double,                                 !- Feature Data Type 32
  67.996785714285721,                     !- Feature Value 32
  EPWDesignDehumidHumidityRatio,          !- Feature Name 33
  Double,                                 !- Feature Data Type 33
  0.012133744170488724,                   !- Feature Value 33
  EPWDesignCoolingDirectNormal,           !- Feature Name 34
  Double,                                 !- Feature Data Type 34
  985,                                    !- Feature Value 34
  EPWDesignCoolingDiffuseHorizontal,      !- Feature Name 35
  Double,                                 !- Feature Data Type 35
  84;                                     !- Feature Value 35

OS:Site,
  {ff23f8b5-a83c-4e06-80d4-58a516f24906}, !- Handle
  Denver Intl Ap_CO_USA,                  !- Name
  39.83,                                  !- Latitude {deg}
  -104.65,                                !- Longitude {deg}
  -7,                                     !- Time Zone {hr}
  1650,                                   !- Elevation {m}
  Suburbs;                                !- Terrain

OS:ClimateZones,
  {b1bad689-f13d-40d5-a108-20d7225887cd}, !- Handle
  ,                                       !- Active Institution
  ,                                       !- Active Year
  ,                                       !- Climate Zone Institution Name 1
  ,                                       !- Climate Zone Document Name 1
  ,                                       !- Climate Zone Document Year 1
  ,                                       !- Climate Zone Value 1
  Building America,                       !- Climate Zone Institution Name 2
  ,                                       !- Climate Zone Document Name 2
  0,                                      !- Climate Zone Document Year 2
  Cold;                                   !- Climate Zone Value 2

OS:Site:WaterMainsTemperature,
  {47ced817-3010-421e-a715-0a8add5b3e7f}, !- Handle
  Correlation,                            !- Calculation Method
  ,                                       !- Temperature Schedule Name
  10.8753424657535,                       !- Annual Average Outdoor Air Temperature {C}
  23.1524007936508;                       !- Maximum Difference In Monthly Average Outdoor Air Temperatures {deltaC}

OS:RunPeriodControl:DaylightSavingTime,
  {1c23fc49-fefe-44a8-b0a3-af56d517d719}, !- Handle
  4/7,                                    !- Start Date
  10/26;                                  !- End Date

OS:Site:GroundTemperature:Deep,
  {ff8971c8-11c3-473f-b66d-73f69cb3f73d}, !- Handle
  10.8753424657535,                       !- January Deep Ground Temperature {C}
  10.8753424657535,                       !- February Deep Ground Temperature {C}
  10.8753424657535,                       !- March Deep Ground Temperature {C}
  10.8753424657535,                       !- April Deep Ground Temperature {C}
  10.8753424657535,                       !- May Deep Ground Temperature {C}
  10.8753424657535,                       !- June Deep Ground Temperature {C}
  10.8753424657535,                       !- July Deep Ground Temperature {C}
  10.8753424657535,                       !- August Deep Ground Temperature {C}
  10.8753424657535,                       !- September Deep Ground Temperature {C}
  10.8753424657535,                       !- October Deep Ground Temperature {C}
  10.8753424657535,                       !- November Deep Ground Temperature {C}
  10.8753424657535;                       !- December Deep Ground Temperature {C}

OS:ThermalZone,
  {cd14997e-69cb-41db-b7be-29d8bc8d6adc}, !- Handle
  living zone,                            !- Name
  ,                                       !- Multiplier
  ,                                       !- Ceiling Height {m}
  ,                                       !- Volume {m3}
  ,                                       !- Floor Area {m2}
  ,                                       !- Zone Inside Convection Algorithm
  ,                                       !- Zone Outside Convection Algorithm
  ,                                       !- Zone Conditioning Equipment List Name
  {bda0b9e9-c118-49ac-8019-e64103e5e8ab}, !- Zone Air Inlet Port List
  {b4b6a2fa-ef19-49a2-87d1-e4d4364bf924}, !- Zone Air Exhaust Port List
  {c3654a5c-acd3-4238-b9f1-634d0e27687f}, !- Zone Air Node Name
  {a5083188-6f46-445a-83a2-f5646088ce24}, !- Zone Return Air Port List
  ,                                       !- Primary Daylighting Control Name
  ,                                       !- Fraction of Zone Controlled by Primary Daylighting Control
  ,                                       !- Secondary Daylighting Control Name
  ,                                       !- Fraction of Zone Controlled by Secondary Daylighting Control
  ,                                       !- Illuminance Map Name
  ,                                       !- Group Rendering Name
  {b60cc294-8478-49f6-86d6-c0eaaa7e29ea}, !- Thermostat Name
  No;                                     !- Use Ideal Air Loads

OS:Node,
  {378fed87-0e88-4039-abdd-f6d711239840}, !- Handle
  Node 1,                                 !- Name
  {c3654a5c-acd3-4238-b9f1-634d0e27687f}, !- Inlet Port
  ;                                       !- Outlet Port

OS:Connection,
  {c3654a5c-acd3-4238-b9f1-634d0e27687f}, !- Handle
  {1595a4c4-b723-490c-99e7-197182adde08}, !- Name
  {cd14997e-69cb-41db-b7be-29d8bc8d6adc}, !- Source Object
  11,                                     !- Outlet Port
  {378fed87-0e88-4039-abdd-f6d711239840}, !- Target Object
  2;                                      !- Inlet Port

OS:PortList,
  {bda0b9e9-c118-49ac-8019-e64103e5e8ab}, !- Handle
  {27ffe621-24bb-4fa9-bbe5-fc3a19ed3cc8}, !- Name
  {cd14997e-69cb-41db-b7be-29d8bc8d6adc}, !- HVAC Component
  {2154a9b5-b6d3-4e59-ad11-9ba317f4f7b5}, !- Port 1
  {83ba07a8-084e-4213-8a84-1536ef2c6455}; !- Port 2

OS:PortList,
  {b4b6a2fa-ef19-49a2-87d1-e4d4364bf924}, !- Handle
  {fd847e02-3e27-4c25-828a-2676a13012ab}, !- Name
  {cd14997e-69cb-41db-b7be-29d8bc8d6adc}; !- HVAC Component

OS:PortList,
  {a5083188-6f46-445a-83a2-f5646088ce24}, !- Handle
  {6ed97c0a-d5de-427e-8a33-196dbd44e2fc}, !- Name
  {cd14997e-69cb-41db-b7be-29d8bc8d6adc}, !- HVAC Component
  {7eb75269-755e-41d1-80dd-6564f7791d98}, !- Port 1
  {2581967c-469e-4b74-97de-87a06b94fdd3}; !- Port 2

OS:Sizing:Zone,
  {b2b38f8e-31dc-4698-905e-6900cfc5b079}, !- Handle
  {cd14997e-69cb-41db-b7be-29d8bc8d6adc}, !- Zone or ZoneList Name
  SupplyAirTemperature,                   !- Zone Cooling Design Supply Air Temperature Input Method
  14,                                     !- Zone Cooling Design Supply Air Temperature {C}
  11.11,                                  !- Zone Cooling Design Supply Air Temperature Difference {deltaC}
  SupplyAirTemperature,                   !- Zone Heating Design Supply Air Temperature Input Method
  40,                                     !- Zone Heating Design Supply Air Temperature {C}
  11.11,                                  !- Zone Heating Design Supply Air Temperature Difference {deltaC}
  0.0085,                                 !- Zone Cooling Design Supply Air Humidity Ratio {kg-H2O/kg-air}
  0.008,                                  !- Zone Heating Design Supply Air Humidity Ratio {kg-H2O/kg-air}
  ,                                       !- Zone Heating Sizing Factor
  ,                                       !- Zone Cooling Sizing Factor
  DesignDay,                              !- Cooling Design Air Flow Method
  ,                                       !- Cooling Design Air Flow Rate {m3/s}
  ,                                       !- Cooling Minimum Air Flow per Zone Floor Area {m3/s-m2}
  ,                                       !- Cooling Minimum Air Flow {m3/s}
  ,                                       !- Cooling Minimum Air Flow Fraction
  DesignDay,                              !- Heating Design Air Flow Method
  ,                                       !- Heating Design Air Flow Rate {m3/s}
  ,                                       !- Heating Maximum Air Flow per Zone Floor Area {m3/s-m2}
  ,                                       !- Heating Maximum Air Flow {m3/s}
  ,                                       !- Heating Maximum Air Flow Fraction
  ,                                       !- Design Zone Air Distribution Effectiveness in Cooling Mode
  ,                                       !- Design Zone Air Distribution Effectiveness in Heating Mode
  No,                                     !- Account for Dedicated Outdoor Air System
  NeutralSupplyAir,                       !- Dedicated Outdoor Air System Control Strategy
  autosize,                               !- Dedicated Outdoor Air Low Setpoint Temperature for Design {C}
  autosize;                               !- Dedicated Outdoor Air High Setpoint Temperature for Design {C}

OS:ZoneHVAC:EquipmentList,
  {cd155826-44e1-44ed-93ab-de98da76aff3}, !- Handle
  Zone HVAC Equipment List 1,             !- Name
  {cd14997e-69cb-41db-b7be-29d8bc8d6adc}, !- Thermal Zone
  SequentialLoad,                         !- Load Distribution Scheme
  {c65ebde8-1e5c-4494-a816-98a6ec59d0f2}, !- Zone Equipment 1
  1,                                      !- Zone Equipment Cooling Sequence 1
  1,                                      !- Zone Equipment Heating or No-Load Sequence 1
  ,                                       !- Zone Equipment Sequential Cooling Fraction Schedule Name 1
  ,                                       !- Zone Equipment Sequential Heating Fraction Schedule Name 1
  {ba03ab87-4d2a-48df-9bf8-ddbe2dad57f3}, !- Zone Equipment 2
  2,                                      !- Zone Equipment Cooling Sequence 2
  2,                                      !- Zone Equipment Heating or No-Load Sequence 2
  ,                                       !- Zone Equipment Sequential Cooling Fraction Schedule Name 2
  ;                                       !- Zone Equipment Sequential Heating Fraction Schedule Name 2

OS:ThermalZone,
  {2cde9e07-0ad9-4511-a759-0c2423c8ee52}, !- Handle
  garage zone,                            !- Name
  ,                                       !- Multiplier
  ,                                       !- Ceiling Height {m}
  ,                                       !- Volume {m3}
  ,                                       !- Floor Area {m2}
  ,                                       !- Zone Inside Convection Algorithm
  ,                                       !- Zone Outside Convection Algorithm
  ,                                       !- Zone Conditioning Equipment List Name
  {2a60afbc-18e2-4254-a217-3e0219f0b688}, !- Zone Air Inlet Port List
  {084fe31d-bb16-480c-b66b-f9db207f5d9a}, !- Zone Air Exhaust Port List
  {5577206e-f730-4452-ba01-ab2ef3d5bd8b}, !- Zone Air Node Name
  {89c0a1e1-b125-416d-92a7-e52f513ff926}, !- Zone Return Air Port List
  ,                                       !- Primary Daylighting Control Name
  ,                                       !- Fraction of Zone Controlled by Primary Daylighting Control
  ,                                       !- Secondary Daylighting Control Name
  ,                                       !- Fraction of Zone Controlled by Secondary Daylighting Control
  ,                                       !- Illuminance Map Name
  ,                                       !- Group Rendering Name
  ,                                       !- Thermostat Name
  No;                                     !- Use Ideal Air Loads

OS:Node,
  {7faa5f9f-3429-491b-81c8-0cbd184a59cc}, !- Handle
  Node 2,                                 !- Name
  {5577206e-f730-4452-ba01-ab2ef3d5bd8b}, !- Inlet Port
  ;                                       !- Outlet Port

OS:Connection,
  {5577206e-f730-4452-ba01-ab2ef3d5bd8b}, !- Handle
  {03df3464-e69d-4ae4-a205-4b91c3f483db}, !- Name
  {2cde9e07-0ad9-4511-a759-0c2423c8ee52}, !- Source Object
  11,                                     !- Outlet Port
  {7faa5f9f-3429-491b-81c8-0cbd184a59cc}, !- Target Object
  2;                                      !- Inlet Port

OS:PortList,
  {2a60afbc-18e2-4254-a217-3e0219f0b688}, !- Handle
  {d66efd14-3e7c-4625-9e5a-8d07f01df694}, !- Name
  {2cde9e07-0ad9-4511-a759-0c2423c8ee52}; !- HVAC Component

OS:PortList,
  {084fe31d-bb16-480c-b66b-f9db207f5d9a}, !- Handle
  {61557c5c-d489-4efe-b99f-24297204f599}, !- Name
  {2cde9e07-0ad9-4511-a759-0c2423c8ee52}; !- HVAC Component

OS:PortList,
  {89c0a1e1-b125-416d-92a7-e52f513ff926}, !- Handle
  {17ea06b7-e862-4d24-9c29-cd13ce73d543}, !- Name
  {2cde9e07-0ad9-4511-a759-0c2423c8ee52}; !- HVAC Component

OS:Sizing:Zone,
  {475d5ef0-a32c-464c-8c98-dc7df9deeac7}, !- Handle
  {2cde9e07-0ad9-4511-a759-0c2423c8ee52}, !- Zone or ZoneList Name
  SupplyAirTemperature,                   !- Zone Cooling Design Supply Air Temperature Input Method
  14,                                     !- Zone Cooling Design Supply Air Temperature {C}
  11.11,                                  !- Zone Cooling Design Supply Air Temperature Difference {deltaC}
  SupplyAirTemperature,                   !- Zone Heating Design Supply Air Temperature Input Method
  40,                                     !- Zone Heating Design Supply Air Temperature {C}
  11.11,                                  !- Zone Heating Design Supply Air Temperature Difference {deltaC}
  0.0085,                                 !- Zone Cooling Design Supply Air Humidity Ratio {kg-H2O/kg-air}
  0.008,                                  !- Zone Heating Design Supply Air Humidity Ratio {kg-H2O/kg-air}
  ,                                       !- Zone Heating Sizing Factor
  ,                                       !- Zone Cooling Sizing Factor
  DesignDay,                              !- Cooling Design Air Flow Method
  ,                                       !- Cooling Design Air Flow Rate {m3/s}
  ,                                       !- Cooling Minimum Air Flow per Zone Floor Area {m3/s-m2}
  ,                                       !- Cooling Minimum Air Flow {m3/s}
  ,                                       !- Cooling Minimum Air Flow Fraction
  DesignDay,                              !- Heating Design Air Flow Method
  ,                                       !- Heating Design Air Flow Rate {m3/s}
  ,                                       !- Heating Maximum Air Flow per Zone Floor Area {m3/s-m2}
  ,                                       !- Heating Maximum Air Flow {m3/s}
  ,                                       !- Heating Maximum Air Flow Fraction
  ,                                       !- Design Zone Air Distribution Effectiveness in Cooling Mode
  ,                                       !- Design Zone Air Distribution Effectiveness in Heating Mode
  No,                                     !- Account for Dedicated Outdoor Air System
  NeutralSupplyAir,                       !- Dedicated Outdoor Air System Control Strategy
  autosize,                               !- Dedicated Outdoor Air Low Setpoint Temperature for Design {C}
  autosize;                               !- Dedicated Outdoor Air High Setpoint Temperature for Design {C}

OS:ZoneHVAC:EquipmentList,
  {4998ed25-5eaf-4ead-8de3-d5aeb83030b8}, !- Handle
  Zone HVAC Equipment List 2,             !- Name
  {2cde9e07-0ad9-4511-a759-0c2423c8ee52}; !- Thermal Zone

OS:Space,
  {f80c963a-1701-4f32-be9e-1877c3da0684}, !- Handle
  garage space,                           !- Name
  {8c211f38-035f-4c1c-9b50-05e7d66c39a3}, !- Space Type Name
  ,                                       !- Default Construction Set Name
  ,                                       !- Default Schedule Set Name
  -0,                                     !- Direction of Relative North {deg}
  0,                                      !- X Origin {m}
  0,                                      !- Y Origin {m}
  0,                                      !- Z Origin {m}
  ,                                       !- Building Story Name
  {2cde9e07-0ad9-4511-a759-0c2423c8ee52}; !- Thermal Zone Name

OS:Surface,
  {3b03f57c-3d03-4548-8ad6-935eddf6e0a2}, !- Handle
  Surface 1,                              !- Name
  Floor,                                  !- Surface Type
  {1799948d-5f0b-4c86-83cf-b000cbe782d3}, !- Construction Name
  {f80c963a-1701-4f32-be9e-1877c3da0684}, !- Space Name
  Foundation,                             !- Outside Boundary Condition
  {aab8ce6b-8c8f-46e0-9bd8-4fb3f632d022}, !- Outside Boundary Condition Object
  NoSun,                                  !- Sun Exposure
  NoWind,                                 !- Wind Exposure
  ,                                       !- View Factor to Ground
  ,                                       !- Number of Vertices
  24.209855785701, -3.6576, 0,            !- X,Y,Z Vertex 1 {m}
  24.209855785701, 3.6576, 0,             !- X,Y,Z Vertex 2 {m}
  27.867455785701, 3.6576, 0,             !- X,Y,Z Vertex 3 {m}
  27.867455785701, -3.6576, 0;            !- X,Y,Z Vertex 4 {m}

OS:Surface,
  {a9072cc3-2e06-4b48-8eb9-73ecde210285}, !- Handle
  Surface 2,                              !- Name
  Wall,                                   !- Surface Type
  {0ad1e703-c51a-4cdc-b455-52f06fac5576}, !- Construction Name
  {f80c963a-1701-4f32-be9e-1877c3da0684}, !- Space Name
  Surface,                                !- Outside Boundary Condition
  {9db3b2cc-6eab-4bdc-b6c1-1282149670a9}, !- Outside Boundary Condition Object
  NoSun,                                  !- Sun Exposure
  NoWind,                                 !- Wind Exposure
  ,                                       !- View Factor to Ground
  ,                                       !- Number of Vertices
  24.209855785701, 3.6576, 2.4384,        !- X,Y,Z Vertex 1 {m}
  24.209855785701, 3.6576, 0,             !- X,Y,Z Vertex 2 {m}
  24.209855785701, 0, 0,                  !- X,Y,Z Vertex 3 {m}
  24.209855785701, 0, 2.4384;             !- X,Y,Z Vertex 4 {m}

OS:Surface,
  {97fcf416-ec8e-4eb4-8ca5-747a6743d261}, !- Handle
  Surface 3,                              !- Name
  Wall,                                   !- Surface Type
  {0ad1e703-c51a-4cdc-b455-52f06fac5576}, !- Construction Name
  {f80c963a-1701-4f32-be9e-1877c3da0684}, !- Space Name
  Surface,                                !- Outside Boundary Condition
  {14e7ef7f-48da-43ea-9ac9-07e62d3c6d62}, !- Outside Boundary Condition Object
  NoSun,                                  !- Sun Exposure
  NoWind,                                 !- Wind Exposure
  ,                                       !- View Factor to Ground
  ,                                       !- Number of Vertices
  27.867455785701, 3.6576, 2.4384,        !- X,Y,Z Vertex 1 {m}
  27.867455785701, 3.6576, 0,             !- X,Y,Z Vertex 2 {m}
  24.209855785701, 3.6576, 0,             !- X,Y,Z Vertex 3 {m}
  24.209855785701, 3.6576, 2.4384;        !- X,Y,Z Vertex 4 {m}

OS:Surface,
  {a26ac1b0-373d-44c8-859f-1081afcb13a6}, !- Handle
  Surface 4,                              !- Name
  Wall,                                   !- Surface Type
  {152bc955-fad9-4a6c-9ae5-5dcdb9def4a1}, !- Construction Name
  {f80c963a-1701-4f32-be9e-1877c3da0684}, !- Space Name
  Outdoors,                               !- Outside Boundary Condition
  ,                                       !- Outside Boundary Condition Object
  SunExposed,                             !- Sun Exposure
  WindExposed,                            !- Wind Exposure
  ,                                       !- View Factor to Ground
  ,                                       !- Number of Vertices
  27.867455785701, -3.6576, 2.4384,       !- X,Y,Z Vertex 1 {m}
  27.867455785701, -3.6576, 0,            !- X,Y,Z Vertex 2 {m}