!- NOTE: Auto-generated from /test/osw_files/SFD_2story_S_UA_GRG_ASHP1_FuelTanklessWH.osw

OS:Version,
  {959a3421-4f47-4998-8b87-b37f628b110b}, !- Handle
  2.8.0;                                  !- Version Identifier

OS:SimulationControl,
  {84c58bbe-f61e-41e3-9d17-007fa80614af}, !- Handle
  ,                                       !- Do Zone Sizing Calculation
  ,                                       !- Do System Sizing Calculation
  ,                                       !- Do Plant Sizing Calculation
  No;                                     !- Run Simulation for Sizing Periods

OS:Timestep,
  {224e003b-b125-4a36-af91-90b10667e126}, !- Handle
  6;                                      !- Number of Timesteps per Hour

OS:ShadowCalculation,
  {3b351bf7-7077-4197-bbdf-e14101822a31}, !- Handle
  20,                                     !- Calculation Frequency
  200;                                    !- Maximum Figures in Shadow Overlap Calculations

OS:SurfaceConvectionAlgorithm:Outside,
  {f8fcdd03-66ef-428c-9f2a-20c98a52b4d4}, !- Handle
  DOE-2;                                  !- Algorithm

OS:SurfaceConvectionAlgorithm:Inside,
  {54a9186a-d625-415a-b022-2e4ce324a710}, !- Handle
  TARP;                                   !- Algorithm

OS:ZoneCapacitanceMultiplier:ResearchSpecial,
  {47c85a68-25d1-4520-9efe-e5038592ab4d}, !- Handle
  ,                                       !- Temperature Capacity Multiplier
  15,                                     !- Humidity Capacity Multiplier
  ;                                       !- Carbon Dioxide Capacity Multiplier

OS:RunPeriod,
  {8911b91f-f373-4f25-9d63-ab1b31b835a1}, !- Handle
  Run Period 1,                           !- Name
  1,                                      !- Begin Month
  1,                                      !- Begin Day of Month
  12,                                     !- End Month
  31,                                     !- End Day of Month
  ,                                       !- Use Weather File Holidays and Special Days
  ,                                       !- Use Weather File Daylight Saving Period
  ,                                       !- Apply Weekend Holiday Rule
  ,                                       !- Use Weather File Rain Indicators
  ,                                       !- Use Weather File Snow Indicators
  ;                                       !- Number of Times Runperiod to be Repeated

OS:WeatherFile,
  {f021ac11-c8ff-490d-aa8e-5c641ef04ef0}, !- Handle
  Denver Intl Ap,                         !- City
  CO,                                     !- State Province Region
  USA,                                    !- Country
  TMY3,                                   !- Data Source
  725650,                                 !- WMO Number
  39.83,                                  !- Latitude {deg}
  -104.65,                                !- Longitude {deg}
  -7,                                     !- Time Zone {hr}
  1650,                                   !- Elevation {m}
  file:../weather/USA_CO_Denver.Intl.AP.725650_TMY3.epw, !- Url
  E23378AA;                               !- Checksum

OS:AdditionalProperties,
  {e90c883b-a7fb-44a0-a314-3ba63a613550}, !- Handle
  {f021ac11-c8ff-490d-aa8e-5c641ef04ef0}, !- Object Name
  EPWHeaderCity,                          !- Feature Name 1
  String,                                 !- Feature Data Type 1
  Denver Intl Ap,                         !- Feature Value 1
  EPWHeaderState,                         !- Feature Name 2
  String,                                 !- Feature Data Type 2
  CO,                                     !- Feature Value 2
  EPWHeaderCountry,                       !- Feature Name 3
  String,                                 !- Feature Data Type 3
  USA,                                    !- Feature Value 3
  EPWHeaderDataSource,                    !- Feature Name 4
  String,                                 !- Feature Data Type 4
  TMY3,                                   !- Feature Value 4
  EPWHeaderStation,                       !- Feature Name 5
  String,                                 !- Feature Data Type 5
  725650,                                 !- Feature Value 5
  EPWHeaderLatitude,                      !- Feature Name 6
  Double,                                 !- Feature Data Type 6
  39.829999999999998,                     !- Feature Value 6
  EPWHeaderLongitude,                     !- Feature Name 7
  Double,                                 !- Feature Data Type 7
  -104.65000000000001,                    !- Feature Value 7
  EPWHeaderTimezone,                      !- Feature Name 8
  Double,                                 !- Feature Data Type 8
  -7,                                     !- Feature Value 8
  EPWHeaderAltitude,                      !- Feature Name 9
  Double,                                 !- Feature Data Type 9
  5413.3858267716532,                     !- Feature Value 9
  EPWHeaderLocalPressure,                 !- Feature Name 10
  Double,                                 !- Feature Data Type 10
  0.81937567683596546,                    !- Feature Value 10
  EPWHeaderRecordsPerHour,                !- Feature Name 11
  Double,                                 !- Feature Data Type 11
  0,                                      !- Feature Value 11
  EPWDataAnnualAvgDrybulb,                !- Feature Name 12
  Double,                                 !- Feature Data Type 12
  51.575616438356228,                     !- Feature Value 12
  EPWDataAnnualMinDrybulb,                !- Feature Name 13
  Double,                                 !- Feature Data Type 13
  -2.9200000000000017,                    !- Feature Value 13
  EPWDataAnnualMaxDrybulb,                !- Feature Name 14
  Double,                                 !- Feature Data Type 14
  104,                                    !- Feature Value 14
  EPWDataCDD50F,                          !- Feature Name 15
  Double,                                 !- Feature Data Type 15
  3072.2925000000005,                     !- Feature Value 15
  EPWDataCDD65F,                          !- Feature Name 16
  Double,                                 !- Feature Data Type 16
  883.62000000000035,                     !- Feature Value 16
  EPWDataHDD50F,                          !- Feature Name 17
  Double,                                 !- Feature Data Type 17
  2497.1925000000001,                     !- Feature Value 17
  EPWDataHDD65F,                          !- Feature Name 18
  Double,                                 !- Feature Data Type 18
  5783.5200000000013,                     !- Feature Value 18
  EPWDataAnnualAvgWindspeed,              !- Feature Name 19
  Double,                                 !- Feature Data Type 19
  3.9165296803649667,                     !- Feature Value 19
  EPWDataMonthlyAvgDrybulbs,              !- Feature Name 20
  String,                                 !- Feature Data Type 20
  33.4191935483871&#4431.90142857142857&#4443.02620967741937&#4442.48624999999999&#4459.877741935483854&#4473.57574999999997&#4472.07975806451608&#4472.70008064516134&#4466.49200000000006&#4450.079112903225806&#4437.218250000000005&#4434.582177419354835, !- Feature Value 20
  EPWDataGroundMonthlyTemps,              !- Feature Name 21
  String,                                 !- Feature Data Type 21
  44.08306285945173&#4440.89570904991865&#4440.64045432632048&#4442.153016571250646&#4448.225111118704206&#4454.268919273837525&#4459.508577937551024&#4462.82777283423508&#4463.10975667174995&#4460.41014950381947&#4455.304105212311526&#4449.445696474514364, !- Feature Value 21
  EPWDataWSF,                             !- Feature Name 22
  Double,                                 !- Feature Data Type 22
  0.58999999999999997,                    !- Feature Value 22
  EPWDataMonthlyAvgDailyHighDrybulbs,     !- Feature Name 23
  String,                                 !- Feature Data Type 23
  47.41032258064516&#4446.58642857142857&#4455.15032258064517&#4453.708&#4472.80193548387098&#4488.67600000000002&#4486.1858064516129&#4485.87225806451613&#4482.082&#4463.18064516129033&#4448.73400000000001&#4448.87935483870968, !- Feature Value 23
  EPWDataMonthlyAvgDailyLowDrybulbs,      !- Feature Name 24
  String,                                 !- Feature Data Type 24
  19.347741935483874&#4419.856428571428573&#4430.316129032258065&#4431.112&#4447.41612903225806&#4457.901999999999994&#4459.063870967741934&#4460.956774193548384&#4452.352000000000004&#4438.41612903225806&#4427.002000000000002&#4423.02903225806451, !- Feature Value 24
  EPWDesignHeatingDrybulb,                !- Feature Name 25
  Double,                                 !- Feature Data Type 25
  12.02,                                  !- Feature Value 25
  EPWDesignHeatingWindspeed,              !- Feature Name 26
  Double,                                 !- Feature Data Type 26
  2.8062500000000004,                     !- Feature Value 26
  EPWDesignCoolingDrybulb,                !- Feature Name 27
  Double,                                 !- Feature Data Type 27
  91.939999999999998,                     !- Feature Value 27
  EPWDesignCoolingWetbulb,                !- Feature Name 28
  Double,                                 !- Feature Data Type 28
  59.95131430195849,                      !- Feature Value 28
  EPWDesignCoolingHumidityRatio,          !- Feature Name 29
  Double,                                 !- Feature Data Type 29
  0.0059161086834698092,                  !- Feature Value 29
  EPWDesignCoolingWindspeed,              !- Feature Name 30
  Double,                                 !- Feature Data Type 30
  3.7999999999999989,                     !- Feature Value 30
  EPWDesignDailyTemperatureRange,         !- Feature Name 31
  Double,                                 !- Feature Data Type 31
  24.915483870967748,                     !- Feature Value 31
  EPWDesignDehumidDrybulb,                !- Feature Name 32
  Double,                                 !- Feature Data Type 32
  67.996785714285721,                     !- Feature Value 32
  EPWDesignDehumidHumidityRatio,          !- Feature Name 33
  Double,                                 !- Feature Data Type 33
  0.012133744170488724,                   !- Feature Value 33
  EPWDesignCoolingDirectNormal,           !- Feature Name 34
  Double,                                 !- Feature Data Type 34
  985,                                    !- Feature Value 34
  EPWDesignCoolingDiffuseHorizontal,      !- Feature Name 35
  Double,                                 !- Feature Data Type 35
  84;                                     !- Feature Value 35

OS:YearDescription,
  {0f556b0b-da99-4301-87a0-1402c9e0ff25}, !- Handle
  ,                                       !- Calendar Year
  Monday;                                 !- Day of Week for Start Day

OS:Site,
  {10d724bd-8553-4e74-8d37-77b2cc0d8391}, !- Handle
  Denver Intl Ap_CO_USA,                  !- Name
  39.83,                                  !- Latitude {deg}
  -104.65,                                !- Longitude {deg}
  -7,                                     !- Time Zone {hr}
  1650,                                   !- Elevation {m}
  Suburbs;                                !- Terrain

OS:ClimateZones,
  {aa444afa-b203-4b81-b173-dfd750086ea4}, !- Handle
  ,                                       !- Active Institution
  ,                                       !- Active Year
  ,                                       !- Climate Zone Institution Name 1
  ,                                       !- Climate Zone Document Name 1
  ,                                       !- Climate Zone Document Year 1
  ,                                       !- Climate Zone Value 1
  Building America,                       !- Climate Zone Institution Name 2
  ,                                       !- Climate Zone Document Name 2
  0,                                      !- Climate Zone Document Year 2
  Cold;                                   !- Climate Zone Value 2

OS:Site:WaterMainsTemperature,
  {ef62e791-8636-4225-ae75-4452426d1e7f}, !- Handle
  Correlation,                            !- Calculation Method
  ,                                       !- Temperature Schedule Name
  10.8753424657535,                       !- Annual Average Outdoor Air Temperature {C}
  23.1524007936508;                       !- Maximum Difference In Monthly Average Outdoor Air Temperatures {deltaC}

OS:RunPeriodControl:DaylightSavingTime,
  {2ed05afb-115f-4134-9f1c-ef362f679484}, !- Handle
  4/7,                                    !- Start Date
  10/26;                                  !- End Date

OS:Site:GroundTemperature:Deep,
  {696f4a58-9a75-4be6-b736-4f1c57bd5b23}, !- Handle
  10.8753424657535,                       !- January Deep Ground Temperature {C}
  10.8753424657535,                       !- February Deep Ground Temperature {C}
  10.8753424657535,                       !- March Deep Ground Temperature {C}
  10.8753424657535,                       !- April Deep Ground Temperature {C}
  10.8753424657535,                       !- May Deep Ground Temperature {C}
  10.8753424657535,                       !- June Deep Ground Temperature {C}
  10.8753424657535,                       !- July Deep Ground Temperature {C}
  10.8753424657535,                       !- August Deep Ground Temperature {C}
  10.8753424657535,                       !- September Deep Ground Temperature {C}
  10.8753424657535,                       !- October Deep Ground Temperature {C}
  10.8753424657535,                       !- November Deep Ground Temperature {C}
  10.8753424657535;                       !- December Deep Ground Temperature {C}

OS:ThermalZone,
  {3195ebe4-bba6-44cf-925b-6a905e9b2907}, !- Handle
  living zone,                            !- Name
  ,                                       !- Multiplier
  ,                                       !- Ceiling Height {m}
  ,                                       !- Volume {m3}
  ,                                       !- Floor Area {m2}
  ,                                       !- Zone Inside Convection Algorithm
  ,                                       !- Zone Outside Convection Algorithm
  ,                                       !- Zone Conditioning Equipment List Name
  {d39845f0-0533-4f9c-8139-25ce97b263a9}, !- Zone Air Inlet Port List
  {9d2f41da-662e-457b-abd4-9bb36f6e3630}, !- Zone Air Exhaust Port List
  {d39a91ed-22ee-4226-bfdb-e93a174f00db}, !- Zone Air Node Name
  {7f76f091-e75a-414d-b288-c81c697954b9}, !- Zone Return Air Port List
  ,                                       !- Primary Daylighting Control Name
  ,                                       !- Fraction of Zone Controlled by Primary Daylighting Control
  ,                                       !- Secondary Daylighting Control Name
  ,                                       !- Fraction of Zone Controlled by Secondary Daylighting Control
  ,                                       !- Illuminance Map Name
  ,                                       !- Group Rendering Name
  {a1153fdb-81c8-4d8a-8f43-f42cd11c5de3}, !- Thermostat Name
  No;                                     !- Use Ideal Air Loads

OS:Node,
  {c6d67031-8786-4029-a944-115aacbdc4a2}, !- Handle
  Node 1,                                 !- Name
  {d39a91ed-22ee-4226-bfdb-e93a174f00db}, !- Inlet Port
  ;                                       !- Outlet Port

OS:Connection,
  {d39a91ed-22ee-4226-bfdb-e93a174f00db}, !- Handle
  {cc271e23-b8e8-4669-b67f-0ebdd89bac1a}, !- Name
  {3195ebe4-bba6-44cf-925b-6a905e9b2907}, !- Source Object
  11,                                     !- Outlet Port
  {c6d67031-8786-4029-a944-115aacbdc4a2}, !- Target Object
  2;                                      !- Inlet Port

OS:PortList,
  {d39845f0-0533-4f9c-8139-25ce97b263a9}, !- Handle
  {cd0b55f9-e157-4b99-a9c5-0a635f435fd0}, !- Name
  {3195ebe4-bba6-44cf-925b-6a905e9b2907}, !- HVAC Component
  {37f7409e-a5f0-4850-91c2-eaf8752ccb49}, !- Port 1
  {2b7dd631-6d66-41a9-8931-442f765b0373}; !- Port 2

OS:PortList,
  {9d2f41da-662e-457b-abd4-9bb36f6e3630}, !- Handle
  {f39477c7-86e1-4347-96d8-e89455ed946b}, !- Name
  {3195ebe4-bba6-44cf-925b-6a905e9b2907}; !- HVAC Component

OS:PortList,
  {7f76f091-e75a-414d-b288-c81c697954b9}, !- Handle
  {7a236d2e-41fe-457c-9815-b17ba74282f9}, !- Name
  {3195ebe4-bba6-44cf-925b-6a905e9b2907}, !- HVAC Component
  {0d207ee5-f419-4e13-b2a1-3232d62122e9}, !- Port 1
  {9b3ace59-4e8f-47fc-a7ed-6fb0fdd658e1}; !- Port 2

OS:Sizing:Zone,
  {3d532721-04e1-45ac-8d7b-2098d2bc41aa}, !- Handle
  {3195ebe4-bba6-44cf-925b-6a905e9b2907}, !- Zone or ZoneList Name
  SupplyAirTemperature,                   !- Zone Cooling Design Supply Air Temperature Input Method
  14,                                     !- Zone Cooling Design Supply Air Temperature {C}
  11.11,                                  !- Zone Cooling Design Supply Air Temperature Difference {deltaC}
  SupplyAirTemperature,                   !- Zone Heating Design Supply Air Temperature Input Method
  40,                                     !- Zone Heating Design Supply Air Temperature {C}
  11.11,                                  !- Zone Heating Design Supply Air Temperature Difference {deltaC}
  0.0085,                                 !- Zone Cooling Design Supply Air Humidity Ratio {kg-H2O/kg-air}
  0.008,                                  !- Zone Heating Design Supply Air Humidity Ratio {kg-H2O/kg-air}
  ,                                       !- Zone Heating Sizing Factor
  ,                                       !- Zone Cooling Sizing Factor
  DesignDay,                              !- Cooling Design Air Flow Method
  ,                                       !- Cooling Design Air Flow Rate {m3/s}
  ,                                       !- Cooling Minimum Air Flow per Zone Floor Area {m3/s-m2}
  ,                                       !- Cooling Minimum Air Flow {m3/s}
  ,                                       !- Cooling Minimum Air Flow Fraction
  DesignDay,                              !- Heating Design Air Flow Method
  ,                                       !- Heating Design Air Flow Rate {m3/s}
  ,                                       !- Heating Maximum Air Flow per Zone Floor Area {m3/s-m2}
  ,                                       !- Heating Maximum Air Flow {m3/s}
  ,                                       !- Heating Maximum Air Flow Fraction
  ,                                       !- Design Zone Air Distribution Effectiveness in Cooling Mode
  ,                                       !- Design Zone Air Distribution Effectiveness in Heating Mode
  No,                                     !- Account for Dedicated Outdoor Air System
  NeutralSupplyAir,                       !- Dedicated Outdoor Air System Control Strategy
  autosize,                               !- Dedicated Outdoor Air Low Setpoint Temperature for Design {C}
  autosize;                               !- Dedicated Outdoor Air High Setpoint Temperature for Design {C}

OS:ZoneHVAC:EquipmentList,
  {b89b7dc4-a1d7-4b68-9991-5233c1b8a49a}, !- Handle
  Zone HVAC Equipment List 1,             !- Name
  {3195ebe4-bba6-44cf-925b-6a905e9b2907}, !- Thermal Zone
  SequentialLoad,                         !- Load Distribution Scheme
  {64825a15-10c8-409e-bfdc-9b29102e0050}, !- Zone Equipment 1
  1,                                      !- Zone Equipment Cooling Sequence 1
  1,                                      !- Zone Equipment Heating or No-Load Sequence 1
  ,                                       !- Zone Equipment Sequential Cooling Fraction 1
  ,                                       !- Zone Equipment Sequential Heating Fraction 1
  {2edc780e-97e4-4024-aadd-bd42a231804b}, !- Zone Equipment 2
  2,                                      !- Zone Equipment Cooling Sequence 2
  2,                                      !- Zone Equipment Heating or No-Load Sequence 2
  ,                                       !- Zone Equipment Sequential Cooling Fraction 2
  ;                                       !- Zone Equipment Sequential Heating Fraction 2

OS:ThermalZone,
  {fc3f901e-b83a-48ae-bc4b-c174e790c0e0}, !- Handle
  garage zone,                            !- Name
  ,                                       !- Multiplier
  ,                                       !- Ceiling Height {m}
  ,                                       !- Volume {m3}
  ,                                       !- Floor Area {m2}
  ,                                       !- Zone Inside Convection Algorithm
  ,                                       !- Zone Outside Convection Algorithm
  ,                                       !- Zone Conditioning Equipment List Name
  {39bd8fc1-a36e-49ad-a773-23d44dd3445c}, !- Zone Air Inlet Port List
  {999278ca-4af7-49b4-abda-de05634ac6ea}, !- Zone Air Exhaust Port List
  {8143b913-42c5-45d4-8975-398032dafabb}, !- Zone Air Node Name
  {301b3ba5-c618-4184-a0b5-255408325edc}, !- Zone Return Air Port List
  ,                                       !- Primary Daylighting Control Name
  ,                                       !- Fraction of Zone Controlled by Primary Daylighting Control
  ,                                       !- Secondary Daylighting Control Name
  ,                                       !- Fraction of Zone Controlled by Secondary Daylighting Control
  ,                                       !- Illuminance Map Name
  ,                                       !- Group Rendering Name
  ,                                       !- Thermostat Name
  No;                                     !- Use Ideal Air Loads

OS:Node,
  {ede0421b-593f-431a-b3d3-ad244bda8b7f}, !- Handle
  Node 2,                                 !- Name
  {8143b913-42c5-45d4-8975-398032dafabb}, !- Inlet Port
  ;                                       !- Outlet Port

OS:Connection,
  {8143b913-42c5-45d4-8975-398032dafabb}, !- Handle
  {4070a43f-9e68-444d-a126-77a8908c635a}, !- Name
  {fc3f901e-b83a-48ae-bc4b-c174e790c0e0}, !- Source Object
  11,                                     !- Outlet Port
  {ede0421b-593f-431a-b3d3-ad244bda8b7f}, !- Target Object
  2;                                      !- Inlet Port

OS:PortList,
  {39bd8fc1-a36e-49ad-a773-23d44dd3445c}, !- Handle
  {05bea1f9-8d73-4513-9b7f-ff6a0efe4cf2}, !- Name
  {fc3f901e-b83a-48ae-bc4b-c174e790c0e0}; !- HVAC Component

OS:PortList,
  {999278ca-4af7-49b4-abda-de05634ac6ea}, !- Handle
  {d2f8727a-e866-4ca2-bea4-89e79f0723f2}, !- Name
  {fc3f901e-b83a-48ae-bc4b-c174e790c0e0}; !- HVAC Component

OS:PortList,
  {301b3ba5-c618-4184-a0b5-255408325edc}, !- Handle
  {6780936a-5749-435e-9802-2eb82e6dde2b}, !- Name
  {fc3f901e-b83a-48ae-bc4b-c174e790c0e0}; !- HVAC Component

OS:Sizing:Zone,
  {5535599c-90e2-4177-9ac9-ebebd7e01ad0}, !- Handle
  {fc3f901e-b83a-48ae-bc4b-c174e790c0e0}, !- Zone or ZoneList Name
  SupplyAirTemperature,                   !- Zone Cooling Design Supply Air Temperature Input Method
  14,                                     !- Zone Cooling Design Supply Air Temperature {C}
  11.11,                                  !- Zone Cooling Design Supply Air Temperature Difference {deltaC}
  SupplyAirTemperature,                   !- Zone Heating Design Supply Air Temperature Input Method
  40,                                     !- Zone Heating Design Supply Air Temperature {C}
  11.11,                                  !- Zone Heating Design Supply Air Temperature Difference {deltaC}
  0.0085,                                 !- Zone Cooling Design Supply Air Humidity Ratio {kg-H2O/kg-air}
  0.008,                                  !- Zone Heating Design Supply Air Humidity Ratio {kg-H2O/kg-air}
  ,                                       !- Zone Heating Sizing Factor
  ,                                       !- Zone Cooling Sizing Factor
  DesignDay,                              !- Cooling Design Air Flow Method
  ,                                       !- Cooling Design Air Flow Rate {m3/s}
  ,                                       !- Cooling Minimum Air Flow per Zone Floor Area {m3/s-m2}
  ,                                       !- Cooling Minimum Air Flow {m3/s}
  ,                                       !- Cooling Minimum Air Flow Fraction
  DesignDay,                              !- Heating Design Air Flow Method
  ,                                       !- Heating Design Air Flow Rate {m3/s}
  ,                                       !- Heating Maximum Air Flow per Zone Floor Area {m3/s-m2}
  ,                                       !- Heating Maximum Air Flow {m3/s}
  ,                                       !- Heating Maximum Air Flow Fraction
  ,                                       !- Design Zone Air Distribution Effectiveness in Cooling Mode
  ,                                       !- Design Zone Air Distribution Effectiveness in Heating Mode
  No,                                     !- Account for Dedicated Outdoor Air System
  NeutralSupplyAir,                       !- Dedicated Outdoor Air System Control Strategy
  autosize,                               !- Dedicated Outdoor Air Low Setpoint Temperature for Design {C}
  autosize;                               !- Dedicated Outdoor Air High Setpoint Temperature for Design {C}

OS:ZoneHVAC:EquipmentList,
  {d5128679-8bcf-4fc3-926f-0115f8a54d8a}, !- Handle
  Zone HVAC Equipment List 2,             !- Name
  {fc3f901e-b83a-48ae-bc4b-c174e790c0e0}; !- Thermal Zone

OS:Space,
  {63ce6b8f-bb49-4ca9-96bc-67f302001d6f}, !- Handle
  garage space,                           !- Name
  {5fa841c8-9a28-4913-b2fa-987672d19a5b}, !- Space Type Name
  ,                                       !- Default Construction Set Name
  ,                                       !- Default Schedule Set Name
  -0,                                     !- Direction of Relative North {deg}
  0,                                      !- X Origin {m}
  0,                                      !- Y Origin {m}
  0,                                      !- Z Origin {m}
  ,                                       !- Building Story Name
  {fc3f901e-b83a-48ae-bc4b-c174e790c0e0}; !- Thermal Zone Name

OS:Surface,
  {cf636136-b745-4f13-8bab-53dd2cb3b62b}, !- Handle
  Surface 1,                              !- Name
  Floor,                                  !- Surface Type
  {03c357b0-dec5-48f3-8228-443aa865f27c}, !- Construction Name
  {63ce6b8f-bb49-4ca9-96bc-67f302001d6f}, !- Space Name
  Foundation,                             !- Outside Boundary Condition
  {b5eb7d79-68e1-47f1-b14a-d6a5d0609068}, !- Outside Boundary Condition Object
  NoSun,                                  !- Sun Exposure
  NoWind,                                 !- Wind Exposure
  ,                                       !- View Factor to Ground
  ,                                       !- Number of Vertices
  12.1802725844098, -3.6576, 0,           !- X,Y,Z Vertex 1 {m}
  12.1802725844098, 3.6576, 0,            !- X,Y,Z Vertex 2 {m}
  15.8378725844098, 3.6576, 0,            !- X,Y,Z Vertex 3 {m}
  15.8378725844098, -3.6576, 0;           !- X,Y,Z Vertex 4 {m}

OS:Surface,
  {c6233ff3-8769-45c7-99e1-c9c21fb77d5c}, !- Handle
  Surface 2,                              !- Name
  Wall,                                   !- Surface Type
  {e2a2642c-ae6a-44e4-9f3e-6569f2ff9a65}, !- Construction Name
  {63ce6b8f-bb49-4ca9-96bc-67f302001d6f}, !- Space Name
  Surface,                                !- Outside Boundary Condition
  {00a09c18-ea3f-4cbc-b155-a540ac4571ca}, !- Outside Boundary Condition Object
  NoSun,                                  !- Sun Exposure
  NoWind,                                 !- Wind Exposure
  ,                                       !- View Factor to Ground
  ,                                       !- Number of Vertices
  12.1802725844098, 3.6576, 2.4384,       !- X,Y,Z Vertex 1 {m}
  12.1802725844098, 3.6576, 0,            !- X,Y,Z Vertex 2 {m}
  12.1802725844098, 0, 0,                 !- X,Y,Z Vertex 3 {m}
  12.1802725844098, 0, 2.4384;            !- X,Y,Z Vertex 4 {m}

OS:Surface,
  {68d7f230-d611-4dcf-bee8-4b5fa2a233e0}, !- Handle
  Surface 3,                              !- Name
  Wall,                                   !- Surface Type
  {e2a2642c-ae6a-44e4-9f3e-6569f2ff9a65}, !- Construction Name
  {63ce6b8f-bb49-4ca9-96bc-67f302001d6f}, !- Space Name
  Surface,                                !- Outside Boundary Condition
  {b68f75b5-e4b8-4c57-99e2-ac3e03ef10dc}, !- Outside Boundary Condition Object
  NoSun,                                  !- Sun Exposure
  NoWind,                                 !- Wind Exposure
  ,                                       !- View Factor to Ground
  ,                                       !- Number of Vertices
  15.8378725844098, 3.6576, 2.4384,       !- X,Y,Z Vertex 1 {m}
  15.8378725844098, 3.6576, 0,            !- X,Y,Z Vertex 2 {m}
  12.1802725844098, 3.6576, 0,            !- X,Y,Z Vertex 3 {m}
  12.1802725844098, 3.6576, 2.4384;       !- X,Y,Z Vertex 4 {m}

OS:Surface,
  {a158289c-bbbc-41b0-ae2f-fedfabc23285}, !- Handle
  Surface 4,                              !- Name
  Wall,                                   !- Surface Type
  {cc6c2015-7640-4eb1-8498-de1508049b06}, !- Construction Name
  {63ce6b8f-bb49-4ca9-96bc-67f302001d6f}, !- Space Name
  Outdoors,                               !- Outside Boundary Condition
  ,                                       !- Outside Boundary Condition Object
  SunExposed,                             !- Sun Exposure
  WindExposed,                            !- Wind Exposure
  ,                                       !- View Factor to Ground
  ,                                       !- Number of Vertices
  15.8378725844098, -3.6576, 2.4384,      !- X,Y,Z Vertex 1 {m}
  15.8378725844098, -3.6576, 0,           !- X,Y,Z Vertex 2 {m}
  15.8378725844098, 3.6576, 0,            !- X,Y,Z Vertex 3 {m}
  15.8378725844098, 3.6576, 2.4384;       !- X,Y,Z Vertex 4 {m}

OS:Surface,