!- NOTE: Auto-generated from /test/osw_files/SFD_HVACSizing_Equip_Dehumidifier_Fixed_Miami.osw

OS:Version,
  {8753c553-50f4-4fd4-89ef-b2444bb61871}, !- Handle
  2.8.1;                                  !- Version Identifier

OS:SimulationControl,
  {dbed2513-8ce0-4fce-a9b7-7745b302fcd3}, !- Handle
  ,                                       !- Do Zone Sizing Calculation
  ,                                       !- Do System Sizing Calculation
  ,                                       !- Do Plant Sizing Calculation
  No;                                     !- Run Simulation for Sizing Periods

OS:Timestep,
  {df4c6fb6-7785-4cc5-b08b-87cd41f42c35}, !- Handle
  6;                                      !- Number of Timesteps per Hour

OS:ShadowCalculation,
  {e99c79d6-4b2b-40cf-884b-632f52e2fb1b}, !- Handle
  20,                                     !- Calculation Frequency
  200;                                    !- Maximum Figures in Shadow Overlap Calculations

OS:SurfaceConvectionAlgorithm:Outside,
  {306771eb-c7bb-4094-99b5-1c75a87f65a3}, !- Handle
  DOE-2;                                  !- Algorithm

OS:SurfaceConvectionAlgorithm:Inside,
  {e0daa0ea-4bd5-4eff-8705-6f1fcedc3232}, !- Handle
  TARP;                                   !- Algorithm

OS:ZoneCapacitanceMultiplier:ResearchSpecial,
  {f163329b-a27e-4f92-bc17-b40112c0d734}, !- Handle
  ,                                       !- Temperature Capacity Multiplier
  15,                                     !- Humidity Capacity Multiplier
  ;                                       !- Carbon Dioxide Capacity Multiplier

OS:RunPeriod,
  {0b9c2330-b05a-45e3-b9d5-768e2536db39}, !- Handle
  Run Period 1,                           !- Name
  1,                                      !- Begin Month
  1,                                      !- Begin Day of Month
  12,                                     !- End Month
  31,                                     !- End Day of Month
  ,                                       !- Use Weather File Holidays and Special Days
  ,                                       !- Use Weather File Daylight Saving Period
  ,                                       !- Apply Weekend Holiday Rule
  ,                                       !- Use Weather File Rain Indicators
  ,                                       !- Use Weather File Snow Indicators
  ;                                       !- Number of Times Runperiod to be Repeated

OS:YearDescription,
  {ce356b62-ad79-4f01-b17e-55c9152ec2b0}, !- Handle
  2007,                                   !- Calendar Year
  ,                                       !- Day of Week for Start Day
  ;                                       !- Is Leap Year

OS:WeatherFile,
  {1556e788-3c07-4ee6-bb3d-431a30b56bce}, !- Handle
  Miami Intl Ap,                          !- City
  FL,                                     !- State Province Region
  USA,                                    !- Country
  TMY3,                                   !- Data Source
  722020,                                 !- WMO Number
  25.82,                                  !- Latitude {deg}
  -80.3,                                  !- Longitude {deg}
  -5,                                     !- Time Zone {hr}
  11,                                     !- Elevation {m}
  file:../weather/USA_FL_Miami.Intl.AP.722020_TMY3.epw, !- Url
  7D992F19;                               !- Checksum

OS:AdditionalProperties,
  {c862d66b-c410-417a-a76f-5bae5fadd231}, !- Handle
  {1556e788-3c07-4ee6-bb3d-431a30b56bce}, !- Object Name
  EPWHeaderCity,                          !- Feature Name 1
  String,                                 !- Feature Data Type 1
  Miami Intl Ap,                          !- Feature Value 1
  EPWHeaderState,                         !- Feature Name 2
  String,                                 !- Feature Data Type 2
  FL,                                     !- Feature Value 2
  EPWHeaderCountry,                       !- Feature Name 3
  String,                                 !- Feature Data Type 3
  USA,                                    !- Feature Value 3
  EPWHeaderDataSource,                    !- Feature Name 4
  String,                                 !- Feature Data Type 4
  TMY3,                                   !- Feature Value 4
  EPWHeaderStation,                       !- Feature Name 5
  String,                                 !- Feature Data Type 5
  722020,                                 !- Feature Value 5
  EPWHeaderLatitude,                      !- Feature Name 6
  Double,                                 !- Feature Data Type 6
  25.82,                                  !- Feature Value 6
  EPWHeaderLongitude,                     !- Feature Name 7
  Double,                                 !- Feature Data Type 7
  -80.299999999999997,                    !- Feature Value 7
  EPWHeaderTimezone,                      !- Feature Name 8
  Double,                                 !- Feature Data Type 8
  -5,                                     !- Feature Value 8
  EPWHeaderAltitude,                      !- Feature Name 9
  Double,                                 !- Feature Data Type 9
  36.089238845144358,                     !- Feature Value 9
  EPWHeaderLocalPressure,                 !- Feature Name 10
  Double,                                 !- Feature Data Type 10
  0.99867279752375582,                    !- Feature Value 10
  EPWHeaderRecordsPerHour,                !- Feature Name 11
  Double,                                 !- Feature Data Type 11
  0,                                      !- Feature Value 11
  EPWDataAnnualAvgDrybulb,                !- Feature Name 12
  Double,                                 !- Feature Data Type 12
  76.112431506849646,                     !- Feature Value 12
  EPWDataAnnualMinDrybulb,                !- Feature Name 13
  Double,                                 !- Feature Data Type 13
  41,                                     !- Feature Value 13
  EPWDataAnnualMaxDrybulb,                !- Feature Name 14
  Double,                                 !- Feature Data Type 14
  96.079999999999998,                     !- Feature Value 14
  EPWDataCDD50F,                          !- Feature Name 15
  Double,                                 !- Feature Data Type 15
  9531.0375000000095,                     !- Feature Value 15
  EPWDataCDD65F,                          !- Feature Name 16
  Double,                                 !- Feature Data Type 16
  4195.6950000000024,                     !- Feature Value 16
  EPWDataHDD50F,                          !- Feature Name 17
  Double,                                 !- Feature Data Type 17
  0,                                      !- Feature Value 17
  EPWDataHDD65F,                          !- Feature Name 18
  Double,                                 !- Feature Data Type 18
  139.65749999999994,                     !- Feature Value 18
  EPWDataAnnualAvgWindspeed,              !- Feature Name 19
  Double,                                 !- Feature Data Type 19
  4.1177511415521071,                     !- Feature Value 19
  EPWDataMonthlyAvgDrybulbs,              !- Feature Name 20
  String,                                 !- Feature Data Type 20
  66.95193548387095&#4469.5634821428572&#4470.82532258064509&#4475.40050000000002&#4479.54733870967738&#4481.83024999999998&#4482.63032258064513&#4482.35137096774197&#4481.48900000000006&#4479.41935483870965&#4474.45850000000013&#4468.52959677419348, !- Feature Value 20
  EPWDataGroundMonthlyTemps,              !- Feature Name 21
  String,                                 !- Feature Data Type 21
  73.49949161266244&#4472.30037030421141&#4472.20434036952582&#4472.77338470116848&#4475.05778059628489&#4477.33153480622997&#4479.3027581871666&#4480.55147971773891&#4480.65756547050086&#4479.64194038682461&#4477.72098435943627&#4475.51697966748856, !- Feature Value 21
  EPWDataWSF,                             !- Feature Name 22
  Double,                                 !- Feature Data Type 22
  0.40999999999999998,                    !- Feature Value 22
  EPWDataMonthlyAvgDailyHighDrybulbs,     !- Feature Name 23
  String,                                 !- Feature Data Type 23
  74.53225806451614&#4477.66214285714287&#4477.27290322580646&#4481.72800000000001&#4486.04064516129033&#4486.98400000000001&#4490.42451612903224&#4488.4967741935484&#4487.90800000000002&#4485.89548387096775&#4480.03600000000002&#4475.40903225806453, !- Feature Value 23
  EPWDataMonthlyAvgDailyLowDrybulbs,      !- Feature Name 24
  String,                                 !- Feature Data Type 24
  59.80709677419355&#4461.73857142857143&#4464.17935483870968&#4469.69800000000001&#4474.1606451612903&#4476.73&#4476.30322580645162&#4477.12774193548387&#4475.84199999999998&#4474.00387096774193&#4467.946&#4461.816129032258054, !- Feature Value 24
  EPWDesignHeatingDrybulb,                !- Feature Name 25
  Double,                                 !- Feature Data Type 25
  51.980000000000004,                     !- Feature Value 25
  EPWDesignHeatingWindspeed,              !- Feature Name 26
  Double,                                 !- Feature Data Type 26
  3.7461538461538462,                     !- Feature Value 26
  EPWDesignCoolingDrybulb,                !- Feature Name 27
  Double,                                 !- Feature Data Type 27
  89.960000000000008,                     !- Feature Value 27
  EPWDesignCoolingWetbulb,                !- Feature Name 28
  Double,                                 !- Feature Data Type 28
  77.005134139097905,                     !- Feature Value 28
  EPWDesignCoolingHumidityRatio,          !- Feature Name 29
  Double,                                 !- Feature Data Type 29
  0.016947724336000048,                   !- Feature Value 29
  EPWDesignCoolingWindspeed,              !- Feature Name 30
  Double,                                 !- Feature Data Type 30
  4.5874999999999959,                     !- Feature Value 30
  EPWDesignDailyTemperatureRange,         !- Feature Name 31
  Double,                                 !- Feature Data Type 31
  11.369032258064536,                     !- Feature Value 31
  EPWDesignDehumidDrybulb,                !- Feature Name 32
  Double,                                 !- Feature Data Type 32
  81.970769230769221,                     !- Feature Value 32
  EPWDesignDehumidHumidityRatio,          !- Feature Name 33
  Double,                                 !- Feature Data Type 33
  0.019380342324718424,                   !- Feature Value 33
  EPWDesignCoolingDirectNormal,           !- Feature Name 34
  Double,                                 !- Feature Data Type 34
  817,                                    !- Feature Value 34
  EPWDesignCoolingDiffuseHorizontal,      !- Feature Name 35
  Double,                                 !- Feature Data Type 35
  229;                                    !- Feature Value 35

OS:Site,
  {be00c07f-852a-41d4-b05f-ef8ec80b42cc}, !- Handle
  Miami Intl Ap_FL_USA,                   !- Name
  25.82,                                  !- Latitude {deg}
  -80.3,                                  !- Longitude {deg}
  -5,                                     !- Time Zone {hr}
  11,                                     !- Elevation {m}
  Suburbs;                                !- Terrain

OS:ClimateZones,
  {c48267e5-3ed4-4565-8b34-1f97df5ccb4c}, !- Handle
  ,                                       !- Active Institution
  ,                                       !- Active Year
  ,                                       !- Climate Zone Institution Name 1
  ,                                       !- Climate Zone Document Name 1
  ,                                       !- Climate Zone Document Year 1
  ,                                       !- Climate Zone Value 1
  Building America,                       !- Climate Zone Institution Name 2
  ,                                       !- Climate Zone Document Name 2
  0,                                      !- Climate Zone Document Year 2
  Hot-Humid;                              !- Climate Zone Value 2

OS:Site:WaterMainsTemperature,
  {f1859cf2-8bb5-4e6a-9cac-2490cc22daea}, !- Handle
  Correlation,                            !- Calculation Method
  ,                                       !- Temperature Schedule Name
  24.5069063926942,                       !- Annual Average Outdoor Air Temperature {C}
  8.71021505376343;                       !- Maximum Difference In Monthly Average Outdoor Air Temperatures {deltaC}

OS:RunPeriodControl:DaylightSavingTime,
  {785ac21c-9b0d-4a71-8ec0-6af5d45deafa}, !- Handle
  4/7,                                    !- Start Date
  10/26;                                  !- End Date

OS:Site:GroundTemperature:Deep,
  {5aba13ca-d73d-4dcf-b7a7-ddbe3202a032}, !- Handle
  24.5069063926942,                       !- January Deep Ground Temperature {C}
  24.5069063926942,                       !- February Deep Ground Temperature {C}
  24.5069063926942,                       !- March Deep Ground Temperature {C}
  24.5069063926942,                       !- April Deep Ground Temperature {C}
  24.5069063926942,                       !- May Deep Ground Temperature {C}
  24.5069063926942,                       !- June Deep Ground Temperature {C}
  24.5069063926942,                       !- July Deep Ground Temperature {C}
  24.5069063926942,                       !- August Deep Ground Temperature {C}
  24.5069063926942,                       !- September Deep Ground Temperature {C}
  24.5069063926942,                       !- October Deep Ground Temperature {C}
  24.5069063926942,                       !- November Deep Ground Temperature {C}
  24.5069063926942;                       !- December Deep Ground Temperature {C}

OS:ThermalZone,
  {cdb9d3a3-601b-4a41-8008-410e294a0971}, !- Handle
  living zone,                            !- Name
  ,                                       !- Multiplier
  ,                                       !- Ceiling Height {m}
  ,                                       !- Volume {m3}
  ,                                       !- Floor Area {m2}
  ,                                       !- Zone Inside Convection Algorithm
  ,                                       !- Zone Outside Convection Algorithm
  ,                                       !- Zone Conditioning Equipment List Name
  {3a07e3ca-83d3-4c04-8ce6-c467ea5301a8}, !- Zone Air Inlet Port List
  {fba2a785-88c9-4fb4-a1b4-093aebb960b4}, !- Zone Air Exhaust Port List
  {6ae208c3-d2a6-45bd-ab56-94c0a968df73}, !- Zone Air Node Name
  {3275462b-3433-4484-ba49-350a952260e9}, !- Zone Return Air Port List
  ,                                       !- Primary Daylighting Control Name
  ,                                       !- Fraction of Zone Controlled by Primary Daylighting Control
  ,                                       !- Secondary Daylighting Control Name
  ,                                       !- Fraction of Zone Controlled by Secondary Daylighting Control
  ,                                       !- Illuminance Map Name
  ,                                       !- Group Rendering Name
  ,                                       !- Thermostat Name
  No,                                     !- Use Ideal Air Loads
  {0b15dc2a-3031-4d43-9875-b29f06d8550b}; !- Humidistat Name

OS:Node,
  {c1136f47-b989-4d04-9d4e-3c9c1d05cddb}, !- Handle
  Node 1,                                 !- Name
  {6ae208c3-d2a6-45bd-ab56-94c0a968df73}, !- Inlet Port
  ;                                       !- Outlet Port

OS:Connection,
  {6ae208c3-d2a6-45bd-ab56-94c0a968df73}, !- Handle
  {3e57dfa9-901f-4109-926f-862bb08004dc}, !- Name
  {cdb9d3a3-601b-4a41-8008-410e294a0971}, !- Source Object
  11,                                     !- Outlet Port
  {c1136f47-b989-4d04-9d4e-3c9c1d05cddb}, !- Target Object
  2;                                      !- Inlet Port

OS:PortList,
  {3a07e3ca-83d3-4c04-8ce6-c467ea5301a8}, !- Handle
  {b298ccb2-bd5d-4b34-a321-9282e2eaceed}, !- Name
  {cdb9d3a3-601b-4a41-8008-410e294a0971}, !- HVAC Component
  {ddb1cabb-c644-4ebb-9912-db453b48e542}; !- Port 1

OS:PortList,
  {fba2a785-88c9-4fb4-a1b4-093aebb960b4}, !- Handle
  {a9889220-1e76-4103-96b2-1f4cf0ad80aa}, !- Name
  {cdb9d3a3-601b-4a41-8008-410e294a0971}, !- HVAC Component
  {e016ccce-086a-4090-9d1e-a679420f1848}; !- Port 1

OS:PortList,
  {3275462b-3433-4484-ba49-350a952260e9}, !- Handle
  {1663582a-ea99-4146-a501-91d4780d8fb2}, !- Name
  {cdb9d3a3-601b-4a41-8008-410e294a0971}; !- HVAC Component

OS:Sizing:Zone,
  {b2a4eab6-5681-4639-a3f2-398c0f6b54b2}, !- Handle
  {cdb9d3a3-601b-4a41-8008-410e294a0971}, !- Zone or ZoneList Name
  SupplyAirTemperature,                   !- Zone Cooling Design Supply Air Temperature Input Method
  14,                                     !- Zone Cooling Design Supply Air Temperature {C}
  11.11,                                  !- Zone Cooling Design Supply Air Temperature Difference {deltaC}
  SupplyAirTemperature,                   !- Zone Heating Design Supply Air Temperature Input Method
  40,                                     !- Zone Heating Design Supply Air Temperature {C}
  11.11,                                  !- Zone Heating Design Supply Air Temperature Difference {deltaC}
  0.0085,                                 !- Zone Cooling Design Supply Air Humidity Ratio {kg-H2O/kg-air}
  0.008,                                  !- Zone Heating Design Supply Air Humidity Ratio {kg-H2O/kg-air}
  ,                                       !- Zone Heating Sizing Factor
  ,                                       !- Zone Cooling Sizing Factor
  DesignDay,                              !- Cooling Design Air Flow Method
  ,                                       !- Cooling Design Air Flow Rate {m3/s}
  ,                                       !- Cooling Minimum Air Flow per Zone Floor Area {m3/s-m2}
  ,                                       !- Cooling Minimum Air Flow {m3/s}
  ,                                       !- Cooling Minimum Air Flow Fraction
  DesignDay,                              !- Heating Design Air Flow Method
  ,                                       !- Heating Design Air Flow Rate {m3/s}
  ,                                       !- Heating Maximum Air Flow per Zone Floor Area {m3/s-m2}
  ,                                       !- Heating Maximum Air Flow {m3/s}
  ,                                       !- Heating Maximum Air Flow Fraction
  ,                                       !- Design Zone Air Distribution Effectiveness in Cooling Mode
  ,                                       !- Design Zone Air Distribution Effectiveness in Heating Mode
  No,                                     !- Account for Dedicated Outdoor Air System
  NeutralSupplyAir,                       !- Dedicated Outdoor Air System Control Strategy
  autosize,                               !- Dedicated Outdoor Air Low Setpoint Temperature for Design {C}
  autosize;                               !- Dedicated Outdoor Air High Setpoint Temperature for Design {C}

OS:ZoneHVAC:EquipmentList,
  {0481ec4f-ce7e-4cc9-a9ad-69256b9cf054}, !- Handle
  Zone HVAC Equipment List 1,             !- Name
  {cdb9d3a3-601b-4a41-8008-410e294a0971}, !- Thermal Zone
  SequentialLoad,                         !- Load Distribution Scheme
  {87965227-a3ac-4b45-a4c0-e4243cbca166}, !- Zone Equipment 1
  1,                                      !- Zone Equipment Cooling Sequence 1
  1,                                      !- Zone Equipment Heating or No-Load Sequence 1
  ,                                       !- Zone Equipment Sequential Cooling Fraction 1
  ;                                       !- Zone Equipment Sequential Heating Fraction 1

OS:ThermalZone,
  {b69bdd97-9ddf-4ad6-a31b-63e1c95d42c2}, !- Handle
  garage zone,                            !- Name
  ,                                       !- Multiplier
  ,                                       !- Ceiling Height {m}
  ,                                       !- Volume {m3}
  ,                                       !- Floor Area {m2}
  ,                                       !- Zone Inside Convection Algorithm
  ,                                       !- Zone Outside Convection Algorithm
  ,                                       !- Zone Conditioning Equipment List Name
  {15635ca0-22be-4d49-85d8-eb4c0f0073a8}, !- Zone Air Inlet Port List
  {7264dc4d-fe63-47ab-87f2-b41d51d1d5bf}, !- Zone Air Exhaust Port List
  {72a19f5d-90bd-43f0-9282-a25369868583}, !- Zone Air Node Name
  {c6bd47ce-053f-4440-8a11-3ea9bff61e3b}, !- Zone Return Air Port List
  ,                                       !- Primary Daylighting Control Name
  ,                                       !- Fraction of Zone Controlled by Primary Daylighting Control
  ,                                       !- Secondary Daylighting Control Name
  ,                                       !- Fraction of Zone Controlled by Secondary Daylighting Control
  ,                                       !- Illuminance Map Name
  ,                                       !- Group Rendering Name
  ,                                       !- Thermostat Name
  No;                                     !- Use Ideal Air Loads

OS:Node,
  {fb4bdcc9-bf7b-45cb-a58b-78b940b1d260}, !- Handle
  Node 2,                                 !- Name
  {72a19f5d-90bd-43f0-9282-a25369868583}, !- Inlet Port
  ;                                       !- Outlet Port

OS:Connection,
  {72a19f5d-90bd-43f0-9282-a25369868583}, !- Handle
  {ebba576c-a7b0-496f-aa68-94fe6e3c5e9d}, !- Name
  {b69bdd97-9ddf-4ad6-a31b-63e1c95d42c2}, !- Source Object
  11,                                     !- Outlet Port
  {fb4bdcc9-bf7b-45cb-a58b-78b940b1d260}, !- Target Object
  2;                                      !- Inlet Port

OS:PortList,
  {15635ca0-22be-4d49-85d8-eb4c0f0073a8}, !- Handle
  {5e6f81cb-2ffc-44ad-8f99-5be264839fa7}, !- Name
  {b69bdd97-9ddf-4ad6-a31b-63e1c95d42c2}; !- HVAC Component

OS:PortList,
  {7264dc4d-fe63-47ab-87f2-b41d51d1d5bf}, !- Handle
  {e4368515-58a5-45e3-a139-9c2bb1fd9d67}, !- Name
  {b69bdd97-9ddf-4ad6-a31b-63e1c95d42c2}; !- HVAC Component

OS:PortList,
  {c6bd47ce-053f-4440-8a11-3ea9bff61e3b}, !- Handle
  {0b4ab3af-1bce-48f6-ac80-c820065f807c}, !- Name
  {b69bdd97-9ddf-4ad6-a31b-63e1c95d42c2}; !- HVAC Component

OS:Sizing:Zone,
  {46b9e2a3-10bf-4681-a4e4-19c24277eb11}, !- Handle
  {b69bdd97-9ddf-4ad6-a31b-63e1c95d42c2}, !- Zone or ZoneList Name
  SupplyAirTemperature,                   !- Zone Cooling Design Supply Air Temperature Input Method
  14,                                     !- Zone Cooling Design Supply Air Temperature {C}
  11.11,                                  !- Zone Cooling Design Supply Air Temperature Difference {deltaC}
  SupplyAirTemperature,                   !- Zone Heating Design Supply Air Temperature Input Method
  40,                                     !- Zone Heating Design Supply Air Temperature {C}
  11.11,                                  !- Zone Heating Design Supply Air Temperature Difference {deltaC}
  0.0085,                                 !- Zone Cooling Design Supply Air Humidity Ratio {kg-H2O/kg-air}
  0.008,                                  !- Zone Heating Design Supply Air Humidity Ratio {kg-H2O/kg-air}
  ,                                       !- Zone Heating Sizing Factor
  ,                                       !- Zone Cooling Sizing Factor
  DesignDay,                              !- Cooling Design Air Flow Method
  ,                                       !- Cooling Design Air Flow Rate {m3/s}
  ,                                       !- Cooling Minimum Air Flow per Zone Floor Area {m3/s-m2}
  ,                                       !- Cooling Minimum Air Flow {m3/s}
  ,                                       !- Cooling Minimum Air Flow Fraction
  DesignDay,                              !- Heating Design Air Flow Method
  ,                                       !- Heating Design Air Flow Rate {m3/s}
  ,                                       !- Heating Maximum Air Flow per Zone Floor Area {m3/s-m2}
  ,                                       !- Heating Maximum Air Flow {m3/s}
  ,                                       !- Heating Maximum Air Flow Fraction
  ,                                       !- Design Zone Air Distribution Effectiveness in Cooling Mode
  ,                                       !- Design Zone Air Distribution Effectiveness in Heating Mode
  No,                                     !- Account for Dedicated Outdoor Air System
  NeutralSupplyAir,                       !- Dedicated Outdoor Air System Control Strategy
  autosize,                               !- Dedicated Outdoor Air Low Setpoint Temperature for Design {C}
  autosize;                               !- Dedicated Outdoor Air High Setpoint Temperature for Design {C}

OS:ZoneHVAC:EquipmentList,
  {08bff0a8-bb85-4d59-b34c-9ffee15ed569}, !- Handle
  Zone HVAC Equipment List 2,             !- Name
  {b69bdd97-9ddf-4ad6-a31b-63e1c95d42c2}; !- Thermal Zone

OS:Space,
  {16cd19d8-69fc-4f74-8eeb-62b4e7da4682}, !- Handle
  garage space,                           !- Name
  {a9010de4-251d-40ab-97e9-c1d526f698e8}, !- Space Type Name
  ,                                       !- Default Construction Set Name
  ,                                       !- Default Schedule Set Name
  -0,                                     !- Direction of Relative North {deg}
  0,                                      !- X Origin {m}
  0,                                      !- Y Origin {m}
  0,                                      !- Z Origin {m}
  ,                                       !- Building Story Name
  {b69bdd97-9ddf-4ad6-a31b-63e1c95d42c2}; !- Thermal Zone Name

OS:Surface,
  {6c40a931-2ac7-4935-93d5-20565b5c3b79}, !- Handle
  Surface 1,                              !- Name
  Floor,                                  !- Surface Type
  {3217e103-aef7-471a-8d93-12b7eedd70ff}, !- Construction Name
  {16cd19d8-69fc-4f74-8eeb-62b4e7da4682}, !- Space Name
  Foundation,                             !- Outside Boundary Condition
  {b0da0d5a-7c63-40e8-a7b3-c76487069304}, !- Outside Boundary Condition Object
  NoSun,                                  !- Sun Exposure
  NoWind,                                 !- Wind Exposure
  ,                                       !- View Factor to Ground
  ,                                       !- Number of Vertices
  8.91701625975123, -3.048, 0,            !- X,Y,Z Vertex 1 {m}
  8.91701625975123, 3.048, 0,             !- X,Y,Z Vertex 2 {m}
  12.5746162597512, 3.048, 0,             !- X,Y,Z Vertex 3 {m}
  12.5746162597512, -3.048, 0;            !- X,Y,Z Vertex 4 {m}

OS:Surface,
  {93cdbbc5-525a-43c1-af1d-917b0d75fe54}, !- Handle
  Surface 2,                              !- Name
  Wall,                                   !- Surface Type
  {5ffdd0e2-d5a9-4670-ad5e-80fc1b2799bb}, !- Construction Name
  {16cd19d8-69fc-4f74-8eeb-62b4e7da4682}, !- Space Name
  Surface,                                !- Outside Boundary Condition
  {e521abbe-500b-4659-b21e-17b13df366ff}, !- Outside Boundary Condition Object
  NoSun,                                  !- Sun Exposure
  NoWind,                                 !- Wind Exposure
  ,                                       !- View Factor to Ground
  ,                                       !- Number of Vertices
  8.91701625975123, 3.048, 2.4384,        !- X,Y,Z Vertex 1 {m}
  8.91701625975123, 3.048, 0,             !- X,Y,Z Vertex 2 {m}
  8.91701625975123, 0, 0,                 !- X,Y,Z Vertex 3 {m}
  8.91701625975123, 0, 2.4384;            !- X,Y,Z Vertex 4 {m}

OS:Surface,
  {7fb806b0-2cdf-418a-b519-414381428bc9}, !- Handle
  Surface 3,                              !- Name
  Wall,                                   !- Surface Type
  {5ffdd0e2-d5a9-4670-ad5e-80fc1b2799bb}, !- Construction Name
  {16cd19d8-69fc-4f74-8eeb-62b4e7da4682}, !- Space Name
  Surface,                                !- Outside Boundary Condition
  {137f2d88-e9a4-4a4f-a7c5-d9316e678d93}, !- Outside Boundary Condition Object
  NoSun,                                  !- Sun Exposure
  NoWind,                                 !- Wind Exposure
  ,                                       !- View Factor to Ground
  ,                                       !- Number of Vertices
  12.5746162597512, 3.048, 2.4384,        !- X,Y,Z Vertex 1 {m}
  12.5746162597512, 3.048, 0,             !- X,Y,Z Vertex 2 {m}
  8.91701625975123, 3.048, 0,             !- X,Y,Z Vertex 3 {m}
  8.91701625975123, 3.048, 2.4384;        !- X,Y,Z Vertex 4 {m}

OS:Surface,
  {f2075268-0029-42a4-ade5-9cc6b278ff23}, !- Handle
  Surface 4,                              !- Name
  Wall,                                   !- Surface Type
  {145655e3-f52a-4fe6-9f9f-ee916286e599}, !- Construction Name
  {16cd19d8-69fc-4f74-8eeb-62b4e7da4682}, !- Space Name
  Outdoors,                               !- Outside Boundary Condition
  ,                                       !- Outside Boundary Condition Object
  SunExposed,                             !- Sun Exposure
  WindExposed,                            !- Wind Exposure
  ,                                       !- View Factor to Ground
  ,                                       !- Number of Vertices
  12.5746162597512, -3.048, 2.4384,       !- X,Y,Z Vertex 1 {m}
  12.5746162597512, -3.048, 0,            !- X,Y,Z Vertex 2 {m}
  12.5746162597512, 3.048, 0,             !- X,Y,Z Vertex 3 {m}
  12.5746162597512, 3.048, 2.4384;        !- X,Y,Z Vertex 4 {m}

OS:Surface,
  {a08434c0-5503-4dd6-ade2-190bd14855de}, !- Handle
  Surface 5,                              !- Name
  Wall,                                   !- Surface Type
  {145655e3-f52a-4fe6-9f9f-ee916286e599}, !- Construction Name
  {16cd19d8-69fc-4f74-8eeb-62b4e7da4682}, !- Space Name
  Outdoors,                               !- Outside Boundary Condition
  ,                                       !- Outside Boundary Condition Object