!- NOTE: Auto-generated from /test/osw_files/SFD_HVACSizing_Load_1story_PB_UA_Vented_ASHP_DuctsInUA.osw

OS:Version,
  {47c48972-75dd-42af-aa3a-2183a41eba7b}, !- Handle
  2.9.0;                                  !- Version Identifier

OS:SimulationControl,
  {cf4cdd91-1b1b-4f19-a4e4-ed16d6b3665b}, !- Handle
  ,                                       !- Do Zone Sizing Calculation
  ,                                       !- Do System Sizing Calculation
  ,                                       !- Do Plant Sizing Calculation
  No;                                     !- Run Simulation for Sizing Periods

OS:Timestep,
  {46cd1ad3-0784-45f7-bcc9-12544370bba4}, !- Handle
  6;                                      !- Number of Timesteps per Hour

OS:ShadowCalculation,
  {999e3cde-ab8c-40cc-8b67-7def9178c353}, !- Handle
  20,                                     !- Calculation Frequency
  200;                                    !- Maximum Figures in Shadow Overlap Calculations

OS:SurfaceConvectionAlgorithm:Outside,
  {ded50b19-92d0-4033-b8e3-4e5a97d98c1f}, !- Handle
  DOE-2;                                  !- Algorithm

OS:SurfaceConvectionAlgorithm:Inside,
  {4dacb349-1abd-4689-8802-4761fe527b60}, !- Handle
  TARP;                                   !- Algorithm

OS:ZoneCapacitanceMultiplier:ResearchSpecial,
  {16a84c3a-c2a1-42de-a3be-a46fecfa6047}, !- Handle
  ,                                       !- Temperature Capacity Multiplier
  15,                                     !- Humidity Capacity Multiplier
  ;                                       !- Carbon Dioxide Capacity Multiplier

OS:RunPeriod,
  {45010e34-10a1-4cf4-ac92-bdd3e77f26cb}, !- Handle
  Run Period 1,                           !- Name
  1,                                      !- Begin Month
  1,                                      !- Begin Day of Month
  12,                                     !- End Month
  31,                                     !- End Day of Month
  ,                                       !- Use Weather File Holidays and Special Days
  ,                                       !- Use Weather File Daylight Saving Period
  ,                                       !- Apply Weekend Holiday Rule
  ,                                       !- Use Weather File Rain Indicators
  ,                                       !- Use Weather File Snow Indicators
  ;                                       !- Number of Times Runperiod to be Repeated

OS:YearDescription,
  {08685df7-0a74-492d-8a6b-819e6cc443cb}, !- Handle
  2007,                                   !- Calendar Year
  ,                                       !- Day of Week for Start Day
  ;                                       !- Is Leap Year

OS:WeatherFile,
  {1bee293a-06bd-4fcd-9240-cad9114391e3}, !- Handle
  Denver Intl Ap,                         !- City
  CO,                                     !- State Province Region
  USA,                                    !- Country
  TMY3,                                   !- Data Source
  725650,                                 !- WMO Number
  39.83,                                  !- Latitude {deg}
  -104.65,                                !- Longitude {deg}
  -7,                                     !- Time Zone {hr}
  1650,                                   !- Elevation {m}
  file:../weather/USA_CO_Denver.Intl.AP.725650_TMY3.epw, !- Url
  E23378AA;                               !- Checksum

OS:AdditionalProperties,
  {521ae833-e641-4a23-9387-6890ff9c1f3f}, !- Handle
  {1bee293a-06bd-4fcd-9240-cad9114391e3}, !- Object Name
  EPWHeaderCity,                          !- Feature Name 1
  String,                                 !- Feature Data Type 1
  Denver Intl Ap,                         !- Feature Value 1
  EPWHeaderState,                         !- Feature Name 2
  String,                                 !- Feature Data Type 2
  CO,                                     !- Feature Value 2
  EPWHeaderCountry,                       !- Feature Name 3
  String,                                 !- Feature Data Type 3
  USA,                                    !- Feature Value 3
  EPWHeaderDataSource,                    !- Feature Name 4
  String,                                 !- Feature Data Type 4
  TMY3,                                   !- Feature Value 4
  EPWHeaderStation,                       !- Feature Name 5
  String,                                 !- Feature Data Type 5
  725650,                                 !- Feature Value 5
  EPWHeaderLatitude,                      !- Feature Name 6
  Double,                                 !- Feature Data Type 6
  39.829999999999998,                     !- Feature Value 6
  EPWHeaderLongitude,                     !- Feature Name 7
  Double,                                 !- Feature Data Type 7
  -104.65000000000001,                    !- Feature Value 7
  EPWHeaderTimezone,                      !- Feature Name 8
  Double,                                 !- Feature Data Type 8
  -7,                                     !- Feature Value 8
  EPWHeaderAltitude,                      !- Feature Name 9
  Double,                                 !- Feature Data Type 9
  5413.3858267716532,                     !- Feature Value 9
  EPWHeaderLocalPressure,                 !- Feature Name 10
  Double,                                 !- Feature Data Type 10
  0.81937567683596546,                    !- Feature Value 10
  EPWHeaderRecordsPerHour,                !- Feature Name 11
  Double,                                 !- Feature Data Type 11
  0,                                      !- Feature Value 11
  EPWDataAnnualAvgDrybulb,                !- Feature Name 12
  Double,                                 !- Feature Data Type 12
  51.575616438356228,                     !- Feature Value 12
  EPWDataAnnualMinDrybulb,                !- Feature Name 13
  Double,                                 !- Feature Data Type 13
  -2.9200000000000017,                    !- Feature Value 13
  EPWDataAnnualMaxDrybulb,                !- Feature Name 14
  Double,                                 !- Feature Data Type 14
  104,                                    !- Feature Value 14
  EPWDataCDD50F,                          !- Feature Name 15
  Double,                                 !- Feature Data Type 15
  3072.2925000000005,                     !- Feature Value 15
  EPWDataCDD65F,                          !- Feature Name 16
  Double,                                 !- Feature Data Type 16
  883.62000000000035,                     !- Feature Value 16
  EPWDataHDD50F,                          !- Feature Name 17
  Double,                                 !- Feature Data Type 17
  2497.1925000000001,                     !- Feature Value 17
  EPWDataHDD65F,                          !- Feature Name 18
  Double,                                 !- Feature Data Type 18
  5783.5200000000013,                     !- Feature Value 18
  EPWDataAnnualAvgWindspeed,              !- Feature Name 19
  Double,                                 !- Feature Data Type 19
  3.9165296803649667,                     !- Feature Value 19
  EPWDataMonthlyAvgDrybulbs,              !- Feature Name 20
  String,                                 !- Feature Data Type 20
  33.4191935483871&#4431.90142857142857&#4443.02620967741937&#4442.48624999999999&#4459.877741935483854&#4473.57574999999997&#4472.07975806451608&#4472.70008064516134&#4466.49200000000006&#4450.079112903225806&#4437.218250000000005&#4434.582177419354835, !- Feature Value 20
  EPWDataGroundMonthlyTemps,              !- Feature Name 21
  String,                                 !- Feature Data Type 21
  44.08306285945173&#4440.89570904991865&#4440.64045432632048&#4442.153016571250646&#4448.225111118704206&#4454.268919273837525&#4459.508577937551024&#4462.82777283423508&#4463.10975667174995&#4460.41014950381947&#4455.304105212311526&#4449.445696474514364, !- Feature Value 21
  EPWDataWSF,                             !- Feature Name 22
  Double,                                 !- Feature Data Type 22
  0.58999999999999997,                    !- Feature Value 22
  EPWDataMonthlyAvgDailyHighDrybulbs,     !- Feature Name 23
  String,                                 !- Feature Data Type 23
  47.41032258064516&#4446.58642857142857&#4455.15032258064517&#4453.708&#4472.80193548387098&#4488.67600000000002&#4486.1858064516129&#4485.87225806451613&#4482.082&#4463.18064516129033&#4448.73400000000001&#4448.87935483870968, !- Feature Value 23
  EPWDataMonthlyAvgDailyLowDrybulbs,      !- Feature Name 24
  String,                                 !- Feature Data Type 24
  19.347741935483874&#4419.856428571428573&#4430.316129032258065&#4431.112&#4447.41612903225806&#4457.901999999999994&#4459.063870967741934&#4460.956774193548384&#4452.352000000000004&#4438.41612903225806&#4427.002000000000002&#4423.02903225806451, !- Feature Value 24
  EPWDesignHeatingDrybulb,                !- Feature Name 25
  Double,                                 !- Feature Data Type 25
  12.02,                                  !- Feature Value 25
  EPWDesignHeatingWindspeed,              !- Feature Name 26
  Double,                                 !- Feature Data Type 26
  2.8062500000000004,                     !- Feature Value 26
  EPWDesignCoolingDrybulb,                !- Feature Name 27
  Double,                                 !- Feature Data Type 27
  91.939999999999998,                     !- Feature Value 27
  EPWDesignCoolingWetbulb,                !- Feature Name 28
  Double,                                 !- Feature Data Type 28
  59.95131430195849,                      !- Feature Value 28
  EPWDesignCoolingHumidityRatio,          !- Feature Name 29
  Double,                                 !- Feature Data Type 29
  0.0059161086834698092,                  !- Feature Value 29
  EPWDesignCoolingWindspeed,              !- Feature Name 30
  Double,                                 !- Feature Data Type 30
  3.7999999999999989,                     !- Feature Value 30
  EPWDesignDailyTemperatureRange,         !- Feature Name 31
  Double,                                 !- Feature Data Type 31
  24.915483870967748,                     !- Feature Value 31
  EPWDesignDehumidDrybulb,                !- Feature Name 32
  Double,                                 !- Feature Data Type 32
  67.996785714285721,                     !- Feature Value 32
  EPWDesignDehumidHumidityRatio,          !- Feature Name 33
  Double,                                 !- Feature Data Type 33
  0.012133744170488724,                   !- Feature Value 33
  EPWDesignCoolingDirectNormal,           !- Feature Name 34
  Double,                                 !- Feature Data Type 34
  985,                                    !- Feature Value 34
  EPWDesignCoolingDiffuseHorizontal,      !- Feature Name 35
  Double,                                 !- Feature Data Type 35
  84;                                     !- Feature Value 35

OS:Site,
  {d4ffffa1-d175-4890-a8d3-3333fb7b4050}, !- Handle
  Denver Intl Ap_CO_USA,                  !- Name
  39.83,                                  !- Latitude {deg}
  -104.65,                                !- Longitude {deg}
  -7,                                     !- Time Zone {hr}
  1650,                                   !- Elevation {m}
  Suburbs;                                !- Terrain

OS:ClimateZones,
  {10ec110e-88a1-4c71-b3f9-76bfef81a01d}, !- Handle
  ,                                       !- Active Institution
  ,                                       !- Active Year
  ,                                       !- Climate Zone Institution Name 1
  ,                                       !- Climate Zone Document Name 1
  ,                                       !- Climate Zone Document Year 1
  ,                                       !- Climate Zone Value 1
  Building America,                       !- Climate Zone Institution Name 2
  ,                                       !- Climate Zone Document Name 2
  0,                                      !- Climate Zone Document Year 2
  Cold;                                   !- Climate Zone Value 2

OS:Site:WaterMainsTemperature,
  {c76e0754-1db4-4b5e-a72e-a59bf7fddfd1}, !- Handle
  Correlation,                            !- Calculation Method
  ,                                       !- Temperature Schedule Name
  10.8753424657535,                       !- Annual Average Outdoor Air Temperature {C}
  23.1524007936508;                       !- Maximum Difference In Monthly Average Outdoor Air Temperatures {deltaC}

OS:RunPeriodControl:DaylightSavingTime,
  {d9d0a0df-20db-4c62-bda3-44f12db20dc1}, !- Handle
  4/7,                                    !- Start Date
  10/26;                                  !- End Date

OS:Site:GroundTemperature:Deep,
  {b43b4c78-9cd8-44f0-aa12-7b31f9d2cb8a}, !- Handle
  10.8753424657535,                       !- January Deep Ground Temperature {C}
  10.8753424657535,                       !- February Deep Ground Temperature {C}
  10.8753424657535,                       !- March Deep Ground Temperature {C}
  10.8753424657535,                       !- April Deep Ground Temperature {C}
  10.8753424657535,                       !- May Deep Ground Temperature {C}
  10.8753424657535,                       !- June Deep Ground Temperature {C}
  10.8753424657535,                       !- July Deep Ground Temperature {C}
  10.8753424657535,                       !- August Deep Ground Temperature {C}
  10.8753424657535,                       !- September Deep Ground Temperature {C}
  10.8753424657535,                       !- October Deep Ground Temperature {C}
  10.8753424657535,                       !- November Deep Ground Temperature {C}
  10.8753424657535;                       !- December Deep Ground Temperature {C}

OS:ThermalZone,
  {e7be245b-69e3-4b35-a6b1-4468a548baac}, !- Handle
  living zone,                            !- Name
  ,                                       !- Multiplier
  ,                                       !- Ceiling Height {m}
  ,                                       !- Volume {m3}
  ,                                       !- Floor Area {m2}
  ,                                       !- Zone Inside Convection Algorithm
  ,                                       !- Zone Outside Convection Algorithm
  ,                                       !- Zone Conditioning Equipment List Name
  {87a1851b-d90f-4ea4-b70c-8405ea45a678}, !- Zone Air Inlet Port List
  {6411dc85-2014-4a35-bbc5-afc74f4b1712}, !- Zone Air Exhaust Port List
  {91f48c9e-b0e3-40ed-8cd4-efc29f20f839}, !- Zone Air Node Name
  {d342b609-b281-4bbe-ac4e-60f7d6fb4585}, !- Zone Return Air Port List
  ,                                       !- Primary Daylighting Control Name
  ,                                       !- Fraction of Zone Controlled by Primary Daylighting Control
  ,                                       !- Secondary Daylighting Control Name
  ,                                       !- Fraction of Zone Controlled by Secondary Daylighting Control
  ,                                       !- Illuminance Map Name
  ,                                       !- Group Rendering Name
  {b592dce0-f74a-49eb-b43b-8bd78b66c22c}, !- Thermostat Name
  No;                                     !- Use Ideal Air Loads

OS:Node,
  {bb276c00-afc7-4137-9160-f8265d62e914}, !- Handle
  Node 1,                                 !- Name
  {91f48c9e-b0e3-40ed-8cd4-efc29f20f839}, !- Inlet Port
  ;                                       !- Outlet Port

OS:Connection,
  {91f48c9e-b0e3-40ed-8cd4-efc29f20f839}, !- Handle
  {5456ead3-f7d1-4cf7-bf75-f0408c8cbe0f}, !- Name
  {e7be245b-69e3-4b35-a6b1-4468a548baac}, !- Source Object
  11,                                     !- Outlet Port
  {bb276c00-afc7-4137-9160-f8265d62e914}, !- Target Object
  2;                                      !- Inlet Port

OS:PortList,
  {87a1851b-d90f-4ea4-b70c-8405ea45a678}, !- Handle
  {e3c17a26-d09e-48d5-8473-2f28a05284f6}, !- Name
  {e7be245b-69e3-4b35-a6b1-4468a548baac}, !- HVAC Component
  {436291bd-978e-46cc-b724-0dfad7578516}, !- Port 1
  {f5d723c4-6a94-4718-bd7c-a0a531f1b979}; !- Port 2

OS:PortList,
  {6411dc85-2014-4a35-bbc5-afc74f4b1712}, !- Handle
  {8dc3cc97-acec-4aad-8643-d088cdd5c0c1}, !- Name
  {e7be245b-69e3-4b35-a6b1-4468a548baac}; !- HVAC Component

OS:PortList,
  {d342b609-b281-4bbe-ac4e-60f7d6fb4585}, !- Handle
  {33ffb1fc-f1c8-41f7-b0bc-6cd9c3d98158}, !- Name
  {e7be245b-69e3-4b35-a6b1-4468a548baac}, !- HVAC Component
  {06e2b142-b007-4b44-8dd0-d57ce7e6141b}, !- Port 1
  {382bde85-c6e2-4bfb-811c-e3cdfed7a046}; !- Port 2

OS:Sizing:Zone,
  {9d1125e4-e3c2-4830-8aa0-13de197a7877}, !- Handle
  {e7be245b-69e3-4b35-a6b1-4468a548baac}, !- Zone or ZoneList Name
  SupplyAirTemperature,                   !- Zone Cooling Design Supply Air Temperature Input Method
  14,                                     !- Zone Cooling Design Supply Air Temperature {C}
  11.11,                                  !- Zone Cooling Design Supply Air Temperature Difference {deltaC}
  SupplyAirTemperature,                   !- Zone Heating Design Supply Air Temperature Input Method
  40,                                     !- Zone Heating Design Supply Air Temperature {C}
  11.11,                                  !- Zone Heating Design Supply Air Temperature Difference {deltaC}
  0.0085,                                 !- Zone Cooling Design Supply Air Humidity Ratio {kg-H2O/kg-air}
  0.008,                                  !- Zone Heating Design Supply Air Humidity Ratio {kg-H2O/kg-air}
  ,                                       !- Zone Heating Sizing Factor
  ,                                       !- Zone Cooling Sizing Factor
  DesignDay,                              !- Cooling Design Air Flow Method
  ,                                       !- Cooling Design Air Flow Rate {m3/s}
  ,                                       !- Cooling Minimum Air Flow per Zone Floor Area {m3/s-m2}
  ,                                       !- Cooling Minimum Air Flow {m3/s}
  ,                                       !- Cooling Minimum Air Flow Fraction
  DesignDay,                              !- Heating Design Air Flow Method
  ,                                       !- Heating Design Air Flow Rate {m3/s}
  ,                                       !- Heating Maximum Air Flow per Zone Floor Area {m3/s-m2}
  ,                                       !- Heating Maximum Air Flow {m3/s}
  ,                                       !- Heating Maximum Air Flow Fraction
  ,                                       !- Design Zone Air Distribution Effectiveness in Cooling Mode
  ,                                       !- Design Zone Air Distribution Effectiveness in Heating Mode
  No,                                     !- Account for Dedicated Outdoor Air System
  NeutralSupplyAir,                       !- Dedicated Outdoor Air System Control Strategy
  autosize,                               !- Dedicated Outdoor Air Low Setpoint Temperature for Design {C}
  autosize;                               !- Dedicated Outdoor Air High Setpoint Temperature for Design {C}

OS:ZoneHVAC:EquipmentList,
  {5164dfaa-a188-4c02-be17-1cd2093f6df6}, !- Handle
  Zone HVAC Equipment List 1,             !- Name
  {e7be245b-69e3-4b35-a6b1-4468a548baac}, !- Thermal Zone
  SequentialLoad,                         !- Load Distribution Scheme
  {2ebd7e10-3304-4c5b-ba0f-8eded12fbed6}, !- Zone Equipment 1
  1,                                      !- Zone Equipment Cooling Sequence 1
  1,                                      !- Zone Equipment Heating or No-Load Sequence 1
  ,                                       !- Zone Equipment Sequential Cooling Fraction Schedule Name 1
  ,                                       !- Zone Equipment Sequential Heating Fraction Schedule Name 1
  {dd6b3b05-bf05-4613-93be-4eb976d9ff91}, !- Zone Equipment 2
  2,                                      !- Zone Equipment Cooling Sequence 2
  2,                                      !- Zone Equipment Heating or No-Load Sequence 2
  ,                                       !- Zone Equipment Sequential Cooling Fraction Schedule Name 2
  ;                                       !- Zone Equipment Sequential Heating Fraction Schedule Name 2

OS:Space,
  {901e8dfd-e464-4e4e-8afa-aa0991df0037}, !- Handle
  living space,                           !- Name
  {fed14954-1617-4f02-a7c8-562d1768a5d3}, !- Space Type Name
  ,                                       !- Default Construction Set Name
  ,                                       !- Default Schedule Set Name
  -0,                                     !- Direction of Relative North {deg}
  0,                                      !- X Origin {m}
  0,                                      !- Y Origin {m}
  0.9144,                                 !- Z Origin {m}
  ,                                       !- Building Story Name
  {e7be245b-69e3-4b35-a6b1-4468a548baac}, !- Thermal Zone Name
  ,                                       !- Part of Total Floor Area
  ,                                       !- Design Specification Outdoor Air Object Name
  {609413c5-16cd-4af2-b731-43903cfaf800}; !- Building Unit Name

OS:Surface,
  {20c5efa1-a1f6-463c-a8d5-43e25095905b}, !- Handle
  Surface 1,                              !- Name
  Floor,                                  !- Surface Type
  {dd562a23-7419-442d-85d0-df97c9af3986}, !- Construction Name
  {901e8dfd-e464-4e4e-8afa-aa0991df0037}, !- Space Name
  Surface,                                !- Outside Boundary Condition
  {6009ceeb-f79d-43c9-bf1f-4212ff5ec0f2}, !- Outside Boundary Condition Object
  NoSun,                                  !- Sun Exposure
  NoWind,                                 !- Wind Exposure
  ,                                       !- View Factor to Ground
  ,                                       !- Number of Vertices
  0, 0, -1.11022302462516e-016,           !- X,Y,Z Vertex 1 {m}
  0, 7.01040000037894, -1.11022302462516e-016, !- X,Y,Z Vertex 2 {m}
  11.2775999993904, 7.01040000037894, -1.11022302462516e-016, !- X,Y,Z Vertex 3 {m}
  11.2775999993904, 0, -1.11022302462516e-016; !- X,Y,Z Vertex 4 {m}

OS:Surface,
  {4384c16b-b1cc-4eeb-bc60-d57e3409aa6d}, !- Handle
  Surface 2,                              !- Name
  Wall,                                   !- Surface Type
  {eecddaac-811f-4e6c-8bdc-583aa908603e}, !- Construction Name
  {901e8dfd-e464-4e4e-8afa-aa0991df0037}, !- Space Name
  Outdoors,                               !- Outside Boundary Condition
  ,                                       !- Outside Boundary Condition Object
  SunExposed,                             !- Sun Exposure
  WindExposed,                            !- Wind Exposure
  ,                                       !- View Factor to Ground
  ,                                       !- Number of Vertices
  0, 7.01040000037894, 2.4384,            !- X,Y,Z Vertex 1 {m}
  0, 7.01040000037894, -1.11022302462516e-016, !- X,Y,Z Vertex 2 {m}
  0, 0, -1.11022302462516e-016,           !- X,Y,Z Vertex 3 {m}
  0, 0, 2.4384;                           !- X,Y,Z Vertex 4 {m}

OS:Surface,
  {301afb41-5f03-4d8e-a3fa-c6e5a6f578e1}, !- Handle
  Surface 3,                              !- Name
  Wall,                                   !- Surface Type
  {eecddaac-811f-4e6c-8bdc-583aa908603e}, !- Construction Name
  {901e8dfd-e464-4e4e-8afa-aa0991df0037}, !- Space Name
  Outdoors,                               !- Outside Boundary Condition
  ,                                       !- Outside Boundary Condition Object
  SunExposed,                             !- Sun Exposure
  WindExposed,                            !- Wind Exposure
  ,                                       !- View Factor to Ground
  ,                                       !- Number of Vertices
  11.2775999993904, 7.01040000037894, 2.4384, !- X,Y,Z Vertex 1 {m}
  11.2775999993904, 7.01040000037894, -1.11022302462516e-016, !- X,Y,Z Vertex 2 {m}
  0, 7.01040000037894, -1.11022302462516e-016, !- X,Y,Z Vertex 3 {m}
  0, 7.01040000037894, 2.4384;            !- X,Y,Z Vertex 4 {m}

OS:Surface,
  {b5b5c52c-f00e-4630-9713-40dc60724bd3}, !- Handle
  Surface 4,                              !- Name
  Wall,                                   !- Surface Type
  {eecddaac-811f-4e6c-8bdc-583aa908603e}, !- Construction Name
  {901e8dfd-e464-4e4e-8afa-aa0991df0037}, !- Space Name
  Outdoors,                               !- Outside Boundary Condition
  ,                                       !- Outside Boundary Condition Object
  SunExposed,                             !- Sun Exposure
  WindExposed,                            !- Wind Exposure
  ,                                       !- View Factor to Ground
  ,                                       !- Number of Vertices
  11.2775999993904, 0, 2.4384,            !- X,Y,Z Vertex 1 {m}
  11.2775999993904, 0, -1.11022302462516e-016, !- X,Y,Z Vertex 2 {m}
  11.2775999993904, 7.01040000037894, -1.11022302462516e-016, !- X,Y,Z Vertex 3 {m}
  11.2775999993904, 7.01040000037894, 2.4384; !- X,Y,Z Vertex 4 {m}

OS:Surface,
  {52c76631-360a-4dc8-afbd-d326d55bce4b}, !- Handle
  Surface 5,                              !- Name
  Wall,                                   !- Surface Type
  {eecddaac-811f-4e6c-8bdc-583aa908603e}, !- Construction Name
  {901e8dfd-e464-4e4e-8afa-aa0991df0037}, !- Space Name
  Outdoors,                               !- Outside Boundary Condition
  ,                                       !- Outside Boundary Condition Object
  SunExposed,                             !- Sun Exposure
  WindExposed,                            !- Wind Exposure
  ,                                       !- View Factor to Ground
  ,                                       !- Number of Vertices
  11.2775999993904, 0, -1.11022302462516e-016, !- X,Y,Z Vertex 1 {m}
  11.2775999993904, 0, 2.4384,            !- X,Y,Z Vertex 2 {m}
  1.04865714285714, 0, 2.4384,            !- X,Y,Z Vertex 3 {m}
  1.04865714285714, 0, -1.11022302462516e-016; !- X,Y,Z Vertex 4 {m}

OS:Surface,
  {a3c1bd32-f39b-4939-8a4a-a5e90a93f436}, !- Handle
  Surface 6,                              !- Name
  RoofCeiling,                            !- Surface Type
  {97a274d8-081d-40f1-be95-7eb60df5c29c}, !- Construction Name
  {901e8dfd-e464-4e4e-8afa-aa0991df0037}, !- Space Name
  Surface,                                !- Outside Boundary Condition
  {79a4afb6-9dcd-4140-9440-f9c7853f2e04}, !- Outside Boundary Condition Object
  NoSun,                                  !- Sun Exposure
  NoWind,                                 !- Wind Exposure
  ,                                       !- View Factor to Ground
  ,                                       !- Number of Vertices
  11.2775999993904, 0, 2.4384,            !- X,Y,Z Vertex 1 {m}
  11.2775999993904, 7.01040000037894, 2.4384, !- X,Y,Z Vertex 2 {m}
  0, 7.01040000037894, 2.4384,            !- X,Y,Z Vertex 3 {m}
  0, 0, 2.4384;                           !- X,Y,Z Vertex 4 {m}

OS:SpaceType,
  {fed14954-1617-4f02-a7c8-562d1768a5d3}, !- Handle
  Space Type 1,                           !- Name
  ,                                       !- Default Construction Set Name
  ,                                       !- Default Schedule Set Name
  ,                                       !- Group Rendering Name
  ,                                       !- Design Specification Outdoor Air Object Name
  ,                                       !- Standards Template
  ,                                       !- Standards Building Type
  living;                                 !- Standards Space Type

OS:Surface,
  {79a4afb6-9dcd-4140-9440-f9c7853f2e04}, !- Handle
  Surface 7,                              !- Name
  Floor,                                  !- Surface Type
  {db0d4338-5929-47c1-b7b8-c351f34defff}, !- Construction Name
  {4e657d1d-f43c-4f73-8f65-10c5975fd3c6}, !- Space Name
  Surface,                                !- Outside Boundary Condition
  {a3c1bd32-f39b-4939-8a4a-a5e90a93f436}, !- Outside Boundary Condition Object
  NoSun,                                  !- Sun Exposure
  NoWind,                                 !- Wind Exposure
  ,                                       !- View Factor to Ground
  ,                                       !- Number of Vertices
  0, 7.01040000037894, -4.44089209850063e-016, !- X,Y,Z Vertex 1 {m}
  11.2775999993904, 7.01040000037894, -4.44089209850063e-016, !- X,Y,Z Vertex 2 {m}
  11.2775999993904, 0, -4.44089209850063e-016, !- X,Y,Z Vertex 3 {m}
  0, 0, -4.44089209850063e-016;           !- X,Y,Z Vertex 4 {m}

OS:Surface,
  {adad8131-b450-4437-9544-112f4c7ee0db}, !- Handle
  Surface 8,                              !- Name
  RoofCeiling,                            !- Surface Type
  {0ff9634f-54f7-4444-b43c-d6a19eb69df4}, !- Construction Name
  {4e657d1d-f43c-4f73-8f65-10c5975fd3c6}, !- Space Name
  Outdoors,                               !- Outside Boundary Condition
  ,                                       !- Outside Boundary Condition Object
  SunExposed,                             !- Sun Exposure
  WindExposed,                            !- Wind Exposure
  ,                                       !- View Factor to Ground
  ,                                       !- Number of Vertices
  11.2775999993904, 3.50520000018947, 1.75260000009474, !- X,Y,Z Vertex 1 {m}
  0, 3.50520000018947, 1.75260000009474,  !- X,Y,Z Vertex 2 {m}
  0, 0, -4.44089209850063e-016,           !- X,Y,Z Vertex 3 {m}
  11.2775999993904, 0, -4.44089209850063e-016; !- X,Y,Z Vertex 4 {m}

OS:Surface,
  {7e002acd-272e-4604-9992-aa6e6bbd9653}, !- Handle
  Surface 9,                              !- Name
  RoofCeiling,                            !- Surface Type
  {0ff9634f-54f7-4444-b43c-d6a19eb69df4}, !- Construction Name
  {4e657d1d-f43c-4f73-8f65-10c5975fd3c6}, !- Space Name
  Outdoors,                               !- Outside Boundary Condition
  ,                                       !- Outside Boundary Condition Object