!- NOTE: Auto-generated from /test/osw_files/SFD_HVACSizing_Equip_GF_AC1_Autosize.osw

OS:Version,
  {a264e945-db84-46ba-9254-f3eedb2823fa}, !- Handle
  2.8.1;                                  !- Version Identifier

OS:SimulationControl,
  {3a7084ad-a7ea-4dd5-b662-8f27c2bc10e5}, !- Handle
  ,                                       !- Do Zone Sizing Calculation
  ,                                       !- Do System Sizing Calculation
  ,                                       !- Do Plant Sizing Calculation
  No;                                     !- Run Simulation for Sizing Periods

OS:Timestep,
  {615b690b-c92f-4fb5-be7e-27c88c5e1e18}, !- Handle
  6;                                      !- Number of Timesteps per Hour

OS:ShadowCalculation,
  {9cf2062f-e9a3-4b7d-8225-5b1089878a03}, !- Handle
  20,                                     !- Calculation Frequency
  200;                                    !- Maximum Figures in Shadow Overlap Calculations

OS:SurfaceConvectionAlgorithm:Outside,
  {bb5d0b6e-bbcc-4779-b363-b40029d3ad5b}, !- Handle
  DOE-2;                                  !- Algorithm

OS:SurfaceConvectionAlgorithm:Inside,
  {7f486989-1634-4188-a30e-2c0c3afbabde}, !- Handle
  TARP;                                   !- Algorithm

OS:ZoneCapacitanceMultiplier:ResearchSpecial,
  {5ee7d694-facf-47d1-b960-eb02451b59a6}, !- Handle
  ,                                       !- Temperature Capacity Multiplier
  15,                                     !- Humidity Capacity Multiplier
  ;                                       !- Carbon Dioxide Capacity Multiplier

OS:RunPeriod,
  {36962d26-49b0-4b0f-a396-3a9b1700be5b}, !- Handle
  Run Period 1,                           !- Name
  1,                                      !- Begin Month
  1,                                      !- Begin Day of Month
  12,                                     !- End Month
  31,                                     !- End Day of Month
  ,                                       !- Use Weather File Holidays and Special Days
  ,                                       !- Use Weather File Daylight Saving Period
  ,                                       !- Apply Weekend Holiday Rule
  ,                                       !- Use Weather File Rain Indicators
  ,                                       !- Use Weather File Snow Indicators
  ;                                       !- Number of Times Runperiod to be Repeated

OS:WeatherFile,
  {ab905ccd-69e0-4f16-8316-5e130a9d7674}, !- Handle
  Denver Intl Ap,                         !- City
  CO,                                     !- State Province Region
  USA,                                    !- Country
  TMY3,                                   !- Data Source
  725650,                                 !- WMO Number
  39.83,                                  !- Latitude {deg}
  -104.65,                                !- Longitude {deg}
  -7,                                     !- Time Zone {hr}
  1650,                                   !- Elevation {m}
  file:../weather/USA_CO_Denver.Intl.AP.725650_TMY3.epw, !- Url
  E23378AA;                               !- Checksum

OS:AdditionalProperties,
  {8fcfaef1-2ade-483b-b719-0a4b7f31bb3e}, !- Handle
  {ab905ccd-69e0-4f16-8316-5e130a9d7674}, !- Object Name
  EPWHeaderCity,                          !- Feature Name 1
  String,                                 !- Feature Data Type 1
  Denver Intl Ap,                         !- Feature Value 1
  EPWHeaderState,                         !- Feature Name 2
  String,                                 !- Feature Data Type 2
  CO,                                     !- Feature Value 2
  EPWHeaderCountry,                       !- Feature Name 3
  String,                                 !- Feature Data Type 3
  USA,                                    !- Feature Value 3
  EPWHeaderDataSource,                    !- Feature Name 4
  String,                                 !- Feature Data Type 4
  TMY3,                                   !- Feature Value 4
  EPWHeaderStation,                       !- Feature Name 5
  String,                                 !- Feature Data Type 5
  725650,                                 !- Feature Value 5
  EPWHeaderLatitude,                      !- Feature Name 6
  Double,                                 !- Feature Data Type 6
  39.829999999999998,                     !- Feature Value 6
  EPWHeaderLongitude,                     !- Feature Name 7
  Double,                                 !- Feature Data Type 7
  -104.65000000000001,                    !- Feature Value 7
  EPWHeaderTimezone,                      !- Feature Name 8
  Double,                                 !- Feature Data Type 8
  -7,                                     !- Feature Value 8
  EPWHeaderAltitude,                      !- Feature Name 9
  Double,                                 !- Feature Data Type 9
  5413.3858267716532,                     !- Feature Value 9
  EPWHeaderLocalPressure,                 !- Feature Name 10
  Double,                                 !- Feature Data Type 10
  0.81937567683596546,                    !- Feature Value 10
  EPWHeaderRecordsPerHour,                !- Feature Name 11
  Double,                                 !- Feature Data Type 11
  0,                                      !- Feature Value 11
  EPWDataAnnualAvgDrybulb,                !- Feature Name 12
  Double,                                 !- Feature Data Type 12
  51.575616438356228,                     !- Feature Value 12
  EPWDataAnnualMinDrybulb,                !- Feature Name 13
  Double,                                 !- Feature Data Type 13
  -2.9200000000000017,                    !- Feature Value 13
  EPWDataAnnualMaxDrybulb,                !- Feature Name 14
  Double,                                 !- Feature Data Type 14
  104,                                    !- Feature Value 14
  EPWDataCDD50F,                          !- Feature Name 15
  Double,                                 !- Feature Data Type 15
  3072.2925000000005,                     !- Feature Value 15
  EPWDataCDD65F,                          !- Feature Name 16
  Double,                                 !- Feature Data Type 16
  883.62000000000035,                     !- Feature Value 16
  EPWDataHDD50F,                          !- Feature Name 17
  Double,                                 !- Feature Data Type 17
  2497.1925000000001,                     !- Feature Value 17
  EPWDataHDD65F,                          !- Feature Name 18
  Double,                                 !- Feature Data Type 18
  5783.5200000000013,                     !- Feature Value 18
  EPWDataAnnualAvgWindspeed,              !- Feature Name 19
  Double,                                 !- Feature Data Type 19
  3.9165296803649667,                     !- Feature Value 19
  EPWDataMonthlyAvgDrybulbs,              !- Feature Name 20
  String,                                 !- Feature Data Type 20
  33.4191935483871&#4431.90142857142857&#4443.02620967741937&#4442.48624999999999&#4459.877741935483854&#4473.57574999999997&#4472.07975806451608&#4472.70008064516134&#4466.49200000000006&#4450.079112903225806&#4437.218250000000005&#4434.582177419354835, !- Feature Value 20
  EPWDataGroundMonthlyTemps,              !- Feature Name 21
  String,                                 !- Feature Data Type 21
  44.08306285945173&#4440.89570904991865&#4440.64045432632048&#4442.153016571250646&#4448.225111118704206&#4454.268919273837525&#4459.508577937551024&#4462.82777283423508&#4463.10975667174995&#4460.41014950381947&#4455.304105212311526&#4449.445696474514364, !- Feature Value 21
  EPWDataWSF,                             !- Feature Name 22
  Double,                                 !- Feature Data Type 22
  0.58999999999999997,                    !- Feature Value 22
  EPWDataMonthlyAvgDailyHighDrybulbs,     !- Feature Name 23
  String,                                 !- Feature Data Type 23
  47.41032258064516&#4446.58642857142857&#4455.15032258064517&#4453.708&#4472.80193548387098&#4488.67600000000002&#4486.1858064516129&#4485.87225806451613&#4482.082&#4463.18064516129033&#4448.73400000000001&#4448.87935483870968, !- Feature Value 23
  EPWDataMonthlyAvgDailyLowDrybulbs,      !- Feature Name 24
  String,                                 !- Feature Data Type 24
  19.347741935483874&#4419.856428571428573&#4430.316129032258065&#4431.112&#4447.41612903225806&#4457.901999999999994&#4459.063870967741934&#4460.956774193548384&#4452.352000000000004&#4438.41612903225806&#4427.002000000000002&#4423.02903225806451, !- Feature Value 24
  EPWDesignHeatingDrybulb,                !- Feature Name 25
  Double,                                 !- Feature Data Type 25
  12.02,                                  !- Feature Value 25
  EPWDesignHeatingWindspeed,              !- Feature Name 26
  Double,                                 !- Feature Data Type 26
  2.8062500000000004,                     !- Feature Value 26
  EPWDesignCoolingDrybulb,                !- Feature Name 27
  Double,                                 !- Feature Data Type 27
  91.939999999999998,                     !- Feature Value 27
  EPWDesignCoolingWetbulb,                !- Feature Name 28
  Double,                                 !- Feature Data Type 28
  59.95131430195849,                      !- Feature Value 28
  EPWDesignCoolingHumidityRatio,          !- Feature Name 29
  Double,                                 !- Feature Data Type 29
  0.0059161086834698092,                  !- Feature Value 29
  EPWDesignCoolingWindspeed,              !- Feature Name 30
  Double,                                 !- Feature Data Type 30
  3.7999999999999989,                     !- Feature Value 30
  EPWDesignDailyTemperatureRange,         !- Feature Name 31
  Double,                                 !- Feature Data Type 31
  24.915483870967748,                     !- Feature Value 31
  EPWDesignDehumidDrybulb,                !- Feature Name 32
  Double,                                 !- Feature Data Type 32
  67.996785714285721,                     !- Feature Value 32
  EPWDesignDehumidHumidityRatio,          !- Feature Name 33
  Double,                                 !- Feature Data Type 33
  0.012133744170488724,                   !- Feature Value 33
  EPWDesignCoolingDirectNormal,           !- Feature Name 34
  Double,                                 !- Feature Data Type 34
  985,                                    !- Feature Value 34
  EPWDesignCoolingDiffuseHorizontal,      !- Feature Name 35
  Double,                                 !- Feature Data Type 35
  84;                                     !- Feature Value 35

OS:YearDescription,
  {dc3d729b-9002-455d-a074-c2fbbebbf3ec}, !- Handle
  ,                                       !- Calendar Year
  Monday;                                 !- Day of Week for Start Day

OS:Site,
  {6a7a9a57-17ad-4a41-a822-83d0f933da41}, !- Handle
  Denver Intl Ap_CO_USA,                  !- Name
  39.83,                                  !- Latitude {deg}
  -104.65,                                !- Longitude {deg}
  -7,                                     !- Time Zone {hr}
  1650,                                   !- Elevation {m}
  Suburbs;                                !- Terrain

OS:ClimateZones,
  {3ba9dc14-7410-46de-af08-d11bd8277890}, !- Handle
  ,                                       !- Active Institution
  ,                                       !- Active Year
  ,                                       !- Climate Zone Institution Name 1
  ,                                       !- Climate Zone Document Name 1
  ,                                       !- Climate Zone Document Year 1
  ,                                       !- Climate Zone Value 1
  Building America,                       !- Climate Zone Institution Name 2
  ,                                       !- Climate Zone Document Name 2
  0,                                      !- Climate Zone Document Year 2
  Cold;                                   !- Climate Zone Value 2

OS:Site:WaterMainsTemperature,
  {7d833c0f-5fd5-43bb-b972-0e2d5e76bca8}, !- Handle
  Correlation,                            !- Calculation Method
  ,                                       !- Temperature Schedule Name
  10.8753424657535,                       !- Annual Average Outdoor Air Temperature {C}
  23.1524007936508;                       !- Maximum Difference In Monthly Average Outdoor Air Temperatures {deltaC}

OS:RunPeriodControl:DaylightSavingTime,
  {f8040d2f-95f2-4620-8678-6ce89646875d}, !- Handle
  4/7,                                    !- Start Date
  10/26;                                  !- End Date

OS:Site:GroundTemperature:Deep,
  {66af7f6b-e134-4e34-a0db-31d4f9f641ca}, !- Handle
  10.8753424657535,                       !- January Deep Ground Temperature {C}
  10.8753424657535,                       !- February Deep Ground Temperature {C}
  10.8753424657535,                       !- March Deep Ground Temperature {C}
  10.8753424657535,                       !- April Deep Ground Temperature {C}
  10.8753424657535,                       !- May Deep Ground Temperature {C}
  10.8753424657535,                       !- June Deep Ground Temperature {C}
  10.8753424657535,                       !- July Deep Ground Temperature {C}
  10.8753424657535,                       !- August Deep Ground Temperature {C}
  10.8753424657535,                       !- September Deep Ground Temperature {C}
  10.8753424657535,                       !- October Deep Ground Temperature {C}
  10.8753424657535,                       !- November Deep Ground Temperature {C}
  10.8753424657535;                       !- December Deep Ground Temperature {C}

OS:ThermalZone,
  {033a0244-1229-47d0-bb89-7b7826947dad}, !- Handle
  living zone,                            !- Name
  ,                                       !- Multiplier
  ,                                       !- Ceiling Height {m}
  ,                                       !- Volume {m3}
  ,                                       !- Floor Area {m2}
  ,                                       !- Zone Inside Convection Algorithm
  ,                                       !- Zone Outside Convection Algorithm
  ,                                       !- Zone Conditioning Equipment List Name
  {555b812d-2ad6-4361-bf3d-eaca0333190b}, !- Zone Air Inlet Port List
  {944c2db0-61ae-40df-bf86-c77d596a68c8}, !- Zone Air Exhaust Port List
  {3210416c-abba-4a43-84fe-d9a1d54e8a6f}, !- Zone Air Node Name
  {be9c5533-4d45-4475-a36a-8e842f1dcc4b}, !- Zone Return Air Port List
  ,                                       !- Primary Daylighting Control Name
  ,                                       !- Fraction of Zone Controlled by Primary Daylighting Control
  ,                                       !- Secondary Daylighting Control Name
  ,                                       !- Fraction of Zone Controlled by Secondary Daylighting Control
  ,                                       !- Illuminance Map Name
  ,                                       !- Group Rendering Name
  {95c9cb6b-381a-4d6a-9be9-d9333ef8c1db}, !- Thermostat Name
  No;                                     !- Use Ideal Air Loads

OS:Node,
  {77752c5a-0cb8-4954-9b07-b0fdb1a8be5f}, !- Handle
  Node 1,                                 !- Name
  {3210416c-abba-4a43-84fe-d9a1d54e8a6f}, !- Inlet Port
  ;                                       !- Outlet Port

OS:Connection,
  {3210416c-abba-4a43-84fe-d9a1d54e8a6f}, !- Handle
  {f0234fa6-8536-4ae7-8d8c-165188f769fb}, !- Name
  {033a0244-1229-47d0-bb89-7b7826947dad}, !- Source Object
  11,                                     !- Outlet Port
  {77752c5a-0cb8-4954-9b07-b0fdb1a8be5f}, !- Target Object
  2;                                      !- Inlet Port

OS:PortList,
  {555b812d-2ad6-4361-bf3d-eaca0333190b}, !- Handle
  {d4165ddb-dbc0-4cf5-a8aa-10a7f9cb141a}, !- Name
  {033a0244-1229-47d0-bb89-7b7826947dad}, !- HVAC Component
  {b0023b38-0ec7-4081-99fe-061dee517823}, !- Port 1
  {c2fb2e6b-929d-47d2-9a5e-f4ef5f67be12}; !- Port 2

OS:PortList,
  {944c2db0-61ae-40df-bf86-c77d596a68c8}, !- Handle
  {083e9489-4d39-46d2-8562-f7cc104746ab}, !- Name
  {033a0244-1229-47d0-bb89-7b7826947dad}; !- HVAC Component

OS:PortList,
  {be9c5533-4d45-4475-a36a-8e842f1dcc4b}, !- Handle
  {991d6cf1-98bf-4764-8fd0-43e6ea306759}, !- Name
  {033a0244-1229-47d0-bb89-7b7826947dad}, !- HVAC Component
  {0dbcaf67-a9a5-4c34-96e3-a84c14fb93a8}, !- Port 1
  {31dbf6c6-888a-4119-82c0-c6b79059d61f}; !- Port 2

OS:Sizing:Zone,
  {b563d7ab-e395-4d30-a98a-6bdb88cb8df4}, !- Handle
  {033a0244-1229-47d0-bb89-7b7826947dad}, !- Zone or ZoneList Name
  SupplyAirTemperature,                   !- Zone Cooling Design Supply Air Temperature Input Method
  14,                                     !- Zone Cooling Design Supply Air Temperature {C}
  11.11,                                  !- Zone Cooling Design Supply Air Temperature Difference {deltaC}
  SupplyAirTemperature,                   !- Zone Heating Design Supply Air Temperature Input Method
  40,                                     !- Zone Heating Design Supply Air Temperature {C}
  11.11,                                  !- Zone Heating Design Supply Air Temperature Difference {deltaC}
  0.0085,                                 !- Zone Cooling Design Supply Air Humidity Ratio {kg-H2O/kg-air}
  0.008,                                  !- Zone Heating Design Supply Air Humidity Ratio {kg-H2O/kg-air}
  ,                                       !- Zone Heating Sizing Factor
  ,                                       !- Zone Cooling Sizing Factor
  DesignDay,                              !- Cooling Design Air Flow Method
  ,                                       !- Cooling Design Air Flow Rate {m3/s}
  ,                                       !- Cooling Minimum Air Flow per Zone Floor Area {m3/s-m2}
  ,                                       !- Cooling Minimum Air Flow {m3/s}
  ,                                       !- Cooling Minimum Air Flow Fraction
  DesignDay,                              !- Heating Design Air Flow Method
  ,                                       !- Heating Design Air Flow Rate {m3/s}
  ,                                       !- Heating Maximum Air Flow per Zone Floor Area {m3/s-m2}
  ,                                       !- Heating Maximum Air Flow {m3/s}
  ,                                       !- Heating Maximum Air Flow Fraction
  ,                                       !- Design Zone Air Distribution Effectiveness in Cooling Mode
  ,                                       !- Design Zone Air Distribution Effectiveness in Heating Mode
  No,                                     !- Account for Dedicated Outdoor Air System
  NeutralSupplyAir,                       !- Dedicated Outdoor Air System Control Strategy
  autosize,                               !- Dedicated Outdoor Air Low Setpoint Temperature for Design {C}
  autosize;                               !- Dedicated Outdoor Air High Setpoint Temperature for Design {C}

OS:ZoneHVAC:EquipmentList,
  {10175840-42f2-478f-b8c5-cc18860fcafb}, !- Handle
  Zone HVAC Equipment List 1,             !- Name
  {033a0244-1229-47d0-bb89-7b7826947dad}, !- Thermal Zone
  SequentialLoad,                         !- Load Distribution Scheme
  {a7474b89-bb7a-426c-8768-c59af1ebc279}, !- Zone Equipment 1
  1,                                      !- Zone Equipment Cooling Sequence 1
  1,                                      !- Zone Equipment Heating or No-Load Sequence 1
  ,                                       !- Zone Equipment Sequential Cooling Fraction 1
  ,                                       !- Zone Equipment Sequential Heating Fraction 1
  {47e9545c-0845-4b48-a766-b3f56b0546d5}, !- Zone Equipment 2
  2,                                      !- Zone Equipment Cooling Sequence 2
  2,                                      !- Zone Equipment Heating or No-Load Sequence 2
  ,                                       !- Zone Equipment Sequential Cooling Fraction 2
  ;                                       !- Zone Equipment Sequential Heating Fraction 2

OS:ThermalZone,
  {585c7b5c-9022-4e33-9433-2fb8db5fb1b6}, !- Handle
  garage zone,                            !- Name
  ,                                       !- Multiplier
  ,                                       !- Ceiling Height {m}
  ,                                       !- Volume {m3}
  ,                                       !- Floor Area {m2}
  ,                                       !- Zone Inside Convection Algorithm
  ,                                       !- Zone Outside Convection Algorithm
  ,                                       !- Zone Conditioning Equipment List Name
  {289ca09b-6c40-4a9b-989d-bcdafc2fc1f2}, !- Zone Air Inlet Port List
  {dabc6c7b-9804-4f07-9b6c-a0b57275e256}, !- Zone Air Exhaust Port List
  {a951e0e3-3785-4d1a-b632-ba9445dadc2f}, !- Zone Air Node Name
  {1a4a599b-a213-4e64-bbf6-8d73bb9f60c8}, !- Zone Return Air Port List
  ,                                       !- Primary Daylighting Control Name
  ,                                       !- Fraction of Zone Controlled by Primary Daylighting Control
  ,                                       !- Secondary Daylighting Control Name
  ,                                       !- Fraction of Zone Controlled by Secondary Daylighting Control
  ,                                       !- Illuminance Map Name
  ,                                       !- Group Rendering Name
  ,                                       !- Thermostat Name
  No;                                     !- Use Ideal Air Loads

OS:Node,
  {87fbb1b4-e86c-44b5-aa96-96f0575c3f3e}, !- Handle
  Node 2,                                 !- Name
  {a951e0e3-3785-4d1a-b632-ba9445dadc2f}, !- Inlet Port
  ;                                       !- Outlet Port

OS:Connection,
  {a951e0e3-3785-4d1a-b632-ba9445dadc2f}, !- Handle
  {c45c1269-492c-4cb6-bd60-753f0dfcc031}, !- Name
  {585c7b5c-9022-4e33-9433-2fb8db5fb1b6}, !- Source Object
  11,                                     !- Outlet Port
  {87fbb1b4-e86c-44b5-aa96-96f0575c3f3e}, !- Target Object
  2;                                      !- Inlet Port

OS:PortList,
  {289ca09b-6c40-4a9b-989d-bcdafc2fc1f2}, !- Handle
  {0438c102-a3e9-4b12-84dd-3489b008559c}, !- Name
  {585c7b5c-9022-4e33-9433-2fb8db5fb1b6}; !- HVAC Component

OS:PortList,
  {dabc6c7b-9804-4f07-9b6c-a0b57275e256}, !- Handle
  {ef295017-93bc-4115-942e-0c5ac3881855}, !- Name
  {585c7b5c-9022-4e33-9433-2fb8db5fb1b6}; !- HVAC Component

OS:PortList,
  {1a4a599b-a213-4e64-bbf6-8d73bb9f60c8}, !- Handle
  {698ddc7a-dd30-4cf6-a931-fe299e752c6b}, !- Name
  {585c7b5c-9022-4e33-9433-2fb8db5fb1b6}; !- HVAC Component

OS:Sizing:Zone,
  {31aeeae6-5c57-44d8-a476-7b2a40e5d271}, !- Handle
  {585c7b5c-9022-4e33-9433-2fb8db5fb1b6}, !- Zone or ZoneList Name
  SupplyAirTemperature,                   !- Zone Cooling Design Supply Air Temperature Input Method
  14,                                     !- Zone Cooling Design Supply Air Temperature {C}
  11.11,                                  !- Zone Cooling Design Supply Air Temperature Difference {deltaC}
  SupplyAirTemperature,                   !- Zone Heating Design Supply Air Temperature Input Method
  40,                                     !- Zone Heating Design Supply Air Temperature {C}
  11.11,                                  !- Zone Heating Design Supply Air Temperature Difference {deltaC}
  0.0085,                                 !- Zone Cooling Design Supply Air Humidity Ratio {kg-H2O/kg-air}
  0.008,                                  !- Zone Heating Design Supply Air Humidity Ratio {kg-H2O/kg-air}
  ,                                       !- Zone Heating Sizing Factor
  ,                                       !- Zone Cooling Sizing Factor
  DesignDay,                              !- Cooling Design Air Flow Method
  ,                                       !- Cooling Design Air Flow Rate {m3/s}
  ,                                       !- Cooling Minimum Air Flow per Zone Floor Area {m3/s-m2}
  ,                                       !- Cooling Minimum Air Flow {m3/s}
  ,                                       !- Cooling Minimum Air Flow Fraction
  DesignDay,                              !- Heating Design Air Flow Method
  ,                                       !- Heating Design Air Flow Rate {m3/s}
  ,                                       !- Heating Maximum Air Flow per Zone Floor Area {m3/s-m2}
  ,                                       !- Heating Maximum Air Flow {m3/s}
  ,                                       !- Heating Maximum Air Flow Fraction
  ,                                       !- Design Zone Air Distribution Effectiveness in Cooling Mode
  ,                                       !- Design Zone Air Distribution Effectiveness in Heating Mode
  No,                                     !- Account for Dedicated Outdoor Air System
  NeutralSupplyAir,                       !- Dedicated Outdoor Air System Control Strategy
  autosize,                               !- Dedicated Outdoor Air Low Setpoint Temperature for Design {C}
  autosize;                               !- Dedicated Outdoor Air High Setpoint Temperature for Design {C}

OS:ZoneHVAC:EquipmentList,
  {f051c05d-5912-48f2-b302-5a9c863ca7c6}, !- Handle
  Zone HVAC Equipment List 2,             !- Name
  {585c7b5c-9022-4e33-9433-2fb8db5fb1b6}; !- Thermal Zone

OS:Space,
  {fd87e562-46b0-4d8b-a63b-d26ce69f198e}, !- Handle
  garage space,                           !- Name
  {7e111e25-f43f-486b-a254-71b8177db2d7}, !- Space Type Name
  ,                                       !- Default Construction Set Name
  ,                                       !- Default Schedule Set Name
  -0,                                     !- Direction of Relative North {deg}
  0,                                      !- X Origin {m}
  0,                                      !- Y Origin {m}
  0,                                      !- Z Origin {m}
  ,                                       !- Building Story Name
  {585c7b5c-9022-4e33-9433-2fb8db5fb1b6}; !- Thermal Zone Name

OS:Surface,
  {7d91d47b-625e-4f7a-9fb8-7a8b8a3d99d3}, !- Handle
  Surface 1,                              !- Name
  Floor,                                  !- Surface Type
  {89baa7f3-40af-4822-9518-ce45d5f5c2dd}, !- Construction Name
  {fd87e562-46b0-4d8b-a63b-d26ce69f198e}, !- Space Name
  Foundation,                             !- Outside Boundary Condition
  {ab914a0c-d243-4393-b930-a777f3fce7e0}, !- Outside Boundary Condition Object
  NoSun,                                  !- Sun Exposure
  NoWind,                                 !- Wind Exposure
  ,                                       !- View Factor to Ground
  ,                                       !- Number of Vertices
  8.91701625975123, -3.048, 0,            !- X,Y,Z Vertex 1 {m}
  8.91701625975123, 3.048, 0,             !- X,Y,Z Vertex 2 {m}
  12.5746162597512, 3.048, 0,             !- X,Y,Z Vertex 3 {m}
  12.5746162597512, -3.048, 0;            !- X,Y,Z Vertex 4 {m}

OS:Surface,
  {0e6eddd3-a0bf-4007-b3af-2f012b9c559a}, !- Handle
  Surface 2,                              !- Name
  Wall,                                   !- Surface Type
  {dd4e9243-3d6a-4778-9603-9a968f332355}, !- Construction Name
  {fd87e562-46b0-4d8b-a63b-d26ce69f198e}, !- Space Name
  Surface,                                !- Outside Boundary Condition
  {8e902ec1-32ae-4ebe-988d-682b8ba4ff5a}, !- Outside Boundary Condition Object
  NoSun,                                  !- Sun Exposure
  NoWind,                                 !- Wind Exposure
  ,                                       !- View Factor to Ground
  ,                                       !- Number of Vertices
  8.91701625975123, 3.048, 2.4384,        !- X,Y,Z Vertex 1 {m}
  8.91701625975123, 3.048, 0,             !- X,Y,Z Vertex 2 {m}
  8.91701625975123, 0, 0,                 !- X,Y,Z Vertex 3 {m}
  8.91701625975123, 0, 2.4384;            !- X,Y,Z Vertex 4 {m}

OS:Surface,
  {737dc124-e0e0-4318-84ae-b09272e36be8}, !- Handle
  Surface 3,                              !- Name
  Wall,                                   !- Surface Type
  {dd4e9243-3d6a-4778-9603-9a968f332355}, !- Construction Name
  {fd87e562-46b0-4d8b-a63b-d26ce69f198e}, !- Space Name
  Surface,                                !- Outside Boundary Condition
  {aa82d3bb-f808-4865-aa29-05e14670c1e1}, !- Outside Boundary Condition Object
  NoSun,                                  !- Sun Exposure
  NoWind,                                 !- Wind Exposure
  ,                                       !- View Factor to Ground
  ,                                       !- Number of Vertices
  12.5746162597512, 3.048, 2.4384,        !- X,Y,Z Vertex 1 {m}
  12.5746162597512, 3.048, 0,             !- X,Y,Z Vertex 2 {m}
  8.91701625975123, 3.048, 0,             !- X,Y,Z Vertex 3 {m}
  8.91701625975123, 3.048, 2.4384;        !- X,Y,Z Vertex 4 {m}

OS:Surface,
  {c70dc0af-0f5b-4674-ba72-ae9827c1a676}, !- Handle
  Surface 4,                              !- Name
  Wall,                                   !- Surface Type
  {d4cd68e6-137b-4ae9-ad0a-da5289c67e55}, !- Construction Name
  {fd87e562-46b0-4d8b-a63b-d26ce69f198e}, !- Space Name
  Outdoors,                               !- Outside Boundary Condition
  ,                                       !- Outside Boundary Condition Object
  SunExposed,                             !- Sun Exposure
  WindExposed,                            !- Wind Exposure
  ,                                       !- View Factor to Ground
  ,                                       !- Number of Vertices
  12.5746162597512, -3.048, 2.4384,       !- X,Y,Z Vertex 1 {m}
  12.5746162597512, -3.048, 0,            !- X,Y,Z Vertex 2 {m}
  12.5746162597512, 3.048, 0,             !- X,Y,Z Vertex 3 {m}
  12.5746162597512, 3.048, 2.4384;        !- X,Y,Z Vertex 4 {m}

OS:Surface,