!- NOTE: Auto-generated from /test/osw_files/SFD_HVACSizing_Equip_ASHP1_Fixed.osw

OS:Version,
  {a30b8758-6bc7-4373-bdcc-27446d8b4423}, !- Handle
  2.9.0;                                  !- Version Identifier

OS:SimulationControl,
  {17f13d46-6548-4ba2-9e31-876a5bd22fef}, !- Handle
  ,                                       !- Do Zone Sizing Calculation
  ,                                       !- Do System Sizing Calculation
  ,                                       !- Do Plant Sizing Calculation
  No;                                     !- Run Simulation for Sizing Periods

OS:Timestep,
  {a72748db-7301-4c5b-a558-0c972716900f}, !- Handle
  6;                                      !- Number of Timesteps per Hour

OS:ShadowCalculation,
  {70d3c64b-81b1-4a30-ad57-cb7dcc6eb3bf}, !- Handle
  20,                                     !- Calculation Frequency
  200;                                    !- Maximum Figures in Shadow Overlap Calculations

OS:SurfaceConvectionAlgorithm:Outside,
  {b67e9e36-0afc-4495-b939-0e57ffa5bbac}, !- Handle
  DOE-2;                                  !- Algorithm

OS:SurfaceConvectionAlgorithm:Inside,
  {5d283d6b-3a22-4af2-845e-dcc81642c5e1}, !- Handle
  TARP;                                   !- Algorithm

OS:ZoneCapacitanceMultiplier:ResearchSpecial,
  {acde9b34-1e4d-4bc9-ab2e-46a528d2bf66}, !- Handle
  ,                                       !- Temperature Capacity Multiplier
  15,                                     !- Humidity Capacity Multiplier
  ;                                       !- Carbon Dioxide Capacity Multiplier

OS:RunPeriod,
  {b46898ca-189c-435e-aabd-c4f1cfe2d292}, !- Handle
  Run Period 1,                           !- Name
  1,                                      !- Begin Month
  1,                                      !- Begin Day of Month
  12,                                     !- End Month
  31,                                     !- End Day of Month
  ,                                       !- Use Weather File Holidays and Special Days
  ,                                       !- Use Weather File Daylight Saving Period
  ,                                       !- Apply Weekend Holiday Rule
  ,                                       !- Use Weather File Rain Indicators
  ,                                       !- Use Weather File Snow Indicators
  ;                                       !- Number of Times Runperiod to be Repeated

OS:YearDescription,
  {394a7c3e-2fdc-41ca-93e6-37d9f6650fb6}, !- Handle
  2007,                                   !- Calendar Year
  ,                                       !- Day of Week for Start Day
  ;                                       !- Is Leap Year

OS:WeatherFile,
  {edd22d8b-e38d-40f1-ad99-f3612d34f3ed}, !- Handle
  Denver Intl Ap,                         !- City
  CO,                                     !- State Province Region
  USA,                                    !- Country
  TMY3,                                   !- Data Source
  725650,                                 !- WMO Number
  39.83,                                  !- Latitude {deg}
  -104.65,                                !- Longitude {deg}
  -7,                                     !- Time Zone {hr}
  1650,                                   !- Elevation {m}
  file:../weather/USA_CO_Denver.Intl.AP.725650_TMY3.epw, !- Url
  E23378AA;                               !- Checksum

OS:AdditionalProperties,
  {a34d3913-2701-4f61-a0d3-50a4ec997136}, !- Handle
  {edd22d8b-e38d-40f1-ad99-f3612d34f3ed}, !- Object Name
  EPWHeaderCity,                          !- Feature Name 1
  String,                                 !- Feature Data Type 1
  Denver Intl Ap,                         !- Feature Value 1
  EPWHeaderState,                         !- Feature Name 2
  String,                                 !- Feature Data Type 2
  CO,                                     !- Feature Value 2
  EPWHeaderCountry,                       !- Feature Name 3
  String,                                 !- Feature Data Type 3
  USA,                                    !- Feature Value 3
  EPWHeaderDataSource,                    !- Feature Name 4
  String,                                 !- Feature Data Type 4
  TMY3,                                   !- Feature Value 4
  EPWHeaderStation,                       !- Feature Name 5
  String,                                 !- Feature Data Type 5
  725650,                                 !- Feature Value 5
  EPWHeaderLatitude,                      !- Feature Name 6
  Double,                                 !- Feature Data Type 6
  39.829999999999998,                     !- Feature Value 6
  EPWHeaderLongitude,                     !- Feature Name 7
  Double,                                 !- Feature Data Type 7
  -104.65000000000001,                    !- Feature Value 7
  EPWHeaderTimezone,                      !- Feature Name 8
  Double,                                 !- Feature Data Type 8
  -7,                                     !- Feature Value 8
  EPWHeaderAltitude,                      !- Feature Name 9
  Double,                                 !- Feature Data Type 9
  5413.3858267716532,                     !- Feature Value 9
  EPWHeaderLocalPressure,                 !- Feature Name 10
  Double,                                 !- Feature Data Type 10
  0.81937567683596546,                    !- Feature Value 10
  EPWHeaderRecordsPerHour,                !- Feature Name 11
  Double,                                 !- Feature Data Type 11
  0,                                      !- Feature Value 11
  EPWDataAnnualAvgDrybulb,                !- Feature Name 12
  Double,                                 !- Feature Data Type 12
  51.575616438356228,                     !- Feature Value 12
  EPWDataAnnualMinDrybulb,                !- Feature Name 13
  Double,                                 !- Feature Data Type 13
  -2.9200000000000017,                    !- Feature Value 13
  EPWDataAnnualMaxDrybulb,                !- Feature Name 14
  Double,                                 !- Feature Data Type 14
  104,                                    !- Feature Value 14
  EPWDataCDD50F,                          !- Feature Name 15
  Double,                                 !- Feature Data Type 15
  3072.2925000000005,                     !- Feature Value 15
  EPWDataCDD65F,                          !- Feature Name 16
  Double,                                 !- Feature Data Type 16
  883.62000000000035,                     !- Feature Value 16
  EPWDataHDD50F,                          !- Feature Name 17
  Double,                                 !- Feature Data Type 17
  2497.1925000000001,                     !- Feature Value 17
  EPWDataHDD65F,                          !- Feature Name 18
  Double,                                 !- Feature Data Type 18
  5783.5200000000013,                     !- Feature Value 18
  EPWDataAnnualAvgWindspeed,              !- Feature Name 19
  Double,                                 !- Feature Data Type 19
  3.9165296803649667,                     !- Feature Value 19
  EPWDataMonthlyAvgDrybulbs,              !- Feature Name 20
  String,                                 !- Feature Data Type 20
  33.4191935483871&#4431.90142857142857&#4443.02620967741937&#4442.48624999999999&#4459.877741935483854&#4473.57574999999997&#4472.07975806451608&#4472.70008064516134&#4466.49200000000006&#4450.079112903225806&#4437.218250000000005&#4434.582177419354835, !- Feature Value 20
  EPWDataGroundMonthlyTemps,              !- Feature Name 21
  String,                                 !- Feature Data Type 21
  44.08306285945173&#4440.89570904991865&#4440.64045432632048&#4442.153016571250646&#4448.225111118704206&#4454.268919273837525&#4459.508577937551024&#4462.82777283423508&#4463.10975667174995&#4460.41014950381947&#4455.304105212311526&#4449.445696474514364, !- Feature Value 21
  EPWDataWSF,                             !- Feature Name 22
  Double,                                 !- Feature Data Type 22
  0.58999999999999997,                    !- Feature Value 22
  EPWDataMonthlyAvgDailyHighDrybulbs,     !- Feature Name 23
  String,                                 !- Feature Data Type 23
  47.41032258064516&#4446.58642857142857&#4455.15032258064517&#4453.708&#4472.80193548387098&#4488.67600000000002&#4486.1858064516129&#4485.87225806451613&#4482.082&#4463.18064516129033&#4448.73400000000001&#4448.87935483870968, !- Feature Value 23
  EPWDataMonthlyAvgDailyLowDrybulbs,      !- Feature Name 24
  String,                                 !- Feature Data Type 24
  19.347741935483874&#4419.856428571428573&#4430.316129032258065&#4431.112&#4447.41612903225806&#4457.901999999999994&#4459.063870967741934&#4460.956774193548384&#4452.352000000000004&#4438.41612903225806&#4427.002000000000002&#4423.02903225806451, !- Feature Value 24
  EPWDesignHeatingDrybulb,                !- Feature Name 25
  Double,                                 !- Feature Data Type 25
  12.02,                                  !- Feature Value 25
  EPWDesignHeatingWindspeed,              !- Feature Name 26
  Double,                                 !- Feature Data Type 26
  2.8062500000000004,                     !- Feature Value 26
  EPWDesignCoolingDrybulb,                !- Feature Name 27
  Double,                                 !- Feature Data Type 27
  91.939999999999998,                     !- Feature Value 27
  EPWDesignCoolingWetbulb,                !- Feature Name 28
  Double,                                 !- Feature Data Type 28
  59.95131430195849,                      !- Feature Value 28
  EPWDesignCoolingHumidityRatio,          !- Feature Name 29
  Double,                                 !- Feature Data Type 29
  0.0059161086834698092,                  !- Feature Value 29
  EPWDesignCoolingWindspeed,              !- Feature Name 30
  Double,                                 !- Feature Data Type 30
  3.7999999999999989,                     !- Feature Value 30
  EPWDesignDailyTemperatureRange,         !- Feature Name 31
  Double,                                 !- Feature Data Type 31
  24.915483870967748,                     !- Feature Value 31
  EPWDesignDehumidDrybulb,                !- Feature Name 32
  Double,                                 !- Feature Data Type 32
  67.996785714285721,                     !- Feature Value 32
  EPWDesignDehumidHumidityRatio,          !- Feature Name 33
  Double,                                 !- Feature Data Type 33
  0.012133744170488724,                   !- Feature Value 33
  EPWDesignCoolingDirectNormal,           !- Feature Name 34
  Double,                                 !- Feature Data Type 34
  985,                                    !- Feature Value 34
  EPWDesignCoolingDiffuseHorizontal,      !- Feature Name 35
  Double,                                 !- Feature Data Type 35
  84;                                     !- Feature Value 35

OS:Site,
  {c9bd1363-81bc-465c-91bd-c15c3e66d776}, !- Handle
  Denver Intl Ap_CO_USA,                  !- Name
  39.83,                                  !- Latitude {deg}
  -104.65,                                !- Longitude {deg}
  -7,                                     !- Time Zone {hr}
  1650,                                   !- Elevation {m}
  Suburbs;                                !- Terrain

OS:ClimateZones,
  {594fa527-37b0-40a5-ad6e-9d13e68f4021}, !- Handle
  ,                                       !- Active Institution
  ,                                       !- Active Year
  ,                                       !- Climate Zone Institution Name 1
  ,                                       !- Climate Zone Document Name 1
  ,                                       !- Climate Zone Document Year 1
  ,                                       !- Climate Zone Value 1
  Building America,                       !- Climate Zone Institution Name 2
  ,                                       !- Climate Zone Document Name 2
  0,                                      !- Climate Zone Document Year 2
  Cold;                                   !- Climate Zone Value 2

OS:Site:WaterMainsTemperature,
  {153c568f-700d-4bc1-85c7-96cdc20656a4}, !- Handle
  Correlation,                            !- Calculation Method
  ,                                       !- Temperature Schedule Name
  10.8753424657535,                       !- Annual Average Outdoor Air Temperature {C}
  23.1524007936508;                       !- Maximum Difference In Monthly Average Outdoor Air Temperatures {deltaC}

OS:RunPeriodControl:DaylightSavingTime,
  {015652ac-bf5e-4a55-8984-11c58141f42f}, !- Handle
  4/7,                                    !- Start Date
  10/26;                                  !- End Date

OS:Site:GroundTemperature:Deep,
  {a5699565-0b53-4e1a-aa76-0f20541ec716}, !- Handle
  10.8753424657535,                       !- January Deep Ground Temperature {C}
  10.8753424657535,                       !- February Deep Ground Temperature {C}
  10.8753424657535,                       !- March Deep Ground Temperature {C}
  10.8753424657535,                       !- April Deep Ground Temperature {C}
  10.8753424657535,                       !- May Deep Ground Temperature {C}
  10.8753424657535,                       !- June Deep Ground Temperature {C}
  10.8753424657535,                       !- July Deep Ground Temperature {C}
  10.8753424657535,                       !- August Deep Ground Temperature {C}
  10.8753424657535,                       !- September Deep Ground Temperature {C}
  10.8753424657535,                       !- October Deep Ground Temperature {C}
  10.8753424657535,                       !- November Deep Ground Temperature {C}
  10.8753424657535;                       !- December Deep Ground Temperature {C}

OS:ThermalZone,
  {954d2748-6fdc-41a9-88b7-a9630e327371}, !- Handle
  living zone,                            !- Name
  ,                                       !- Multiplier
  ,                                       !- Ceiling Height {m}
  ,                                       !- Volume {m3}
  ,                                       !- Floor Area {m2}
  ,                                       !- Zone Inside Convection Algorithm
  ,                                       !- Zone Outside Convection Algorithm
  ,                                       !- Zone Conditioning Equipment List Name
  {455af129-d87a-4282-8eef-e7b15eccfa8f}, !- Zone Air Inlet Port List
  {2fbf8ac7-d057-49de-8bb8-3808d02575fd}, !- Zone Air Exhaust Port List
  {1ece8567-61a0-4fdc-bdb7-76de2446ccdf}, !- Zone Air Node Name
  {e486b3c4-7386-4329-9763-34bd5c5424c8}, !- Zone Return Air Port List
  ,                                       !- Primary Daylighting Control Name
  ,                                       !- Fraction of Zone Controlled by Primary Daylighting Control
  ,                                       !- Secondary Daylighting Control Name
  ,                                       !- Fraction of Zone Controlled by Secondary Daylighting Control
  ,                                       !- Illuminance Map Name
  ,                                       !- Group Rendering Name
  {84a87f84-2c40-4698-855b-961c6336bd09}, !- Thermostat Name
  No;                                     !- Use Ideal Air Loads

OS:Node,
  {d7c26b78-4b14-4513-8d38-b02a12c0af65}, !- Handle
  Node 1,                                 !- Name
  {1ece8567-61a0-4fdc-bdb7-76de2446ccdf}, !- Inlet Port
  ;                                       !- Outlet Port

OS:Connection,
  {1ece8567-61a0-4fdc-bdb7-76de2446ccdf}, !- Handle
  {955af28c-b820-456d-b138-ee801effae9c}, !- Name
  {954d2748-6fdc-41a9-88b7-a9630e327371}, !- Source Object
  11,                                     !- Outlet Port
  {d7c26b78-4b14-4513-8d38-b02a12c0af65}, !- Target Object
  2;                                      !- Inlet Port

OS:PortList,
  {455af129-d87a-4282-8eef-e7b15eccfa8f}, !- Handle
  {0a495cdd-4769-4334-900c-3f40ec263a6d}, !- Name
  {954d2748-6fdc-41a9-88b7-a9630e327371}, !- HVAC Component
  {17620476-e37f-4488-8039-60ba758c99f5}, !- Port 1
  {650a9774-099a-4974-8e59-d24f0f75dfd7}; !- Port 2

OS:PortList,
  {2fbf8ac7-d057-49de-8bb8-3808d02575fd}, !- Handle
  {0d34aacc-3cbd-42ea-870e-bb1d82caf823}, !- Name
  {954d2748-6fdc-41a9-88b7-a9630e327371}; !- HVAC Component

OS:PortList,
  {e486b3c4-7386-4329-9763-34bd5c5424c8}, !- Handle
  {5b3448c8-c67b-4df3-8aee-0b72056889b6}, !- Name
  {954d2748-6fdc-41a9-88b7-a9630e327371}, !- HVAC Component
  {ea16121c-0eab-4878-862f-4ab598dfa08a}, !- Port 1
  {25aae472-f245-45a1-87ef-1b277b763dda}; !- Port 2

OS:Sizing:Zone,
  {567604ff-81f6-4eac-b413-bd357907eebc}, !- Handle
  {954d2748-6fdc-41a9-88b7-a9630e327371}, !- Zone or ZoneList Name
  SupplyAirTemperature,                   !- Zone Cooling Design Supply Air Temperature Input Method
  14,                                     !- Zone Cooling Design Supply Air Temperature {C}
  11.11,                                  !- Zone Cooling Design Supply Air Temperature Difference {deltaC}
  SupplyAirTemperature,                   !- Zone Heating Design Supply Air Temperature Input Method
  40,                                     !- Zone Heating Design Supply Air Temperature {C}
  11.11,                                  !- Zone Heating Design Supply Air Temperature Difference {deltaC}
  0.0085,                                 !- Zone Cooling Design Supply Air Humidity Ratio {kg-H2O/kg-air}
  0.008,                                  !- Zone Heating Design Supply Air Humidity Ratio {kg-H2O/kg-air}
  ,                                       !- Zone Heating Sizing Factor
  ,                                       !- Zone Cooling Sizing Factor
  DesignDay,                              !- Cooling Design Air Flow Method
  ,                                       !- Cooling Design Air Flow Rate {m3/s}
  ,                                       !- Cooling Minimum Air Flow per Zone Floor Area {m3/s-m2}
  ,                                       !- Cooling Minimum Air Flow {m3/s}
  ,                                       !- Cooling Minimum Air Flow Fraction
  DesignDay,                              !- Heating Design Air Flow Method
  ,                                       !- Heating Design Air Flow Rate {m3/s}
  ,                                       !- Heating Maximum Air Flow per Zone Floor Area {m3/s-m2}
  ,                                       !- Heating Maximum Air Flow {m3/s}
  ,                                       !- Heating Maximum Air Flow Fraction
  ,                                       !- Design Zone Air Distribution Effectiveness in Cooling Mode
  ,                                       !- Design Zone Air Distribution Effectiveness in Heating Mode
  No,                                     !- Account for Dedicated Outdoor Air System
  NeutralSupplyAir,                       !- Dedicated Outdoor Air System Control Strategy
  autosize,                               !- Dedicated Outdoor Air Low Setpoint Temperature for Design {C}
  autosize;                               !- Dedicated Outdoor Air High Setpoint Temperature for Design {C}

OS:ZoneHVAC:EquipmentList,
  {51f47ad4-b6f4-4e86-a96c-104557f9797b}, !- Handle
  Zone HVAC Equipment List 1,             !- Name
  {954d2748-6fdc-41a9-88b7-a9630e327371}, !- Thermal Zone
  SequentialLoad,                         !- Load Distribution Scheme
  {aee028eb-cee2-4572-b7de-4c26713452b8}, !- Zone Equipment 1
  1,                                      !- Zone Equipment Cooling Sequence 1
  1,                                      !- Zone Equipment Heating or No-Load Sequence 1
  ,                                       !- Zone Equipment Sequential Cooling Fraction Schedule Name 1
  ,                                       !- Zone Equipment Sequential Heating Fraction Schedule Name 1
  {7585518b-a684-4219-a33b-101f5154a526}, !- Zone Equipment 2
  2,                                      !- Zone Equipment Cooling Sequence 2
  2,                                      !- Zone Equipment Heating or No-Load Sequence 2
  ,                                       !- Zone Equipment Sequential Cooling Fraction Schedule Name 2
  ;                                       !- Zone Equipment Sequential Heating Fraction Schedule Name 2

OS:ThermalZone,
  {6609f498-fab9-4b3b-afdb-648f58430b76}, !- Handle
  garage zone,                            !- Name
  ,                                       !- Multiplier
  ,                                       !- Ceiling Height {m}
  ,                                       !- Volume {m3}
  ,                                       !- Floor Area {m2}
  ,                                       !- Zone Inside Convection Algorithm
  ,                                       !- Zone Outside Convection Algorithm
  ,                                       !- Zone Conditioning Equipment List Name
  {aa24aa19-2607-4ee2-88e9-631a273e907d}, !- Zone Air Inlet Port List
  {b7a1a6a9-d9a1-423d-8639-dc913dc84d1d}, !- Zone Air Exhaust Port List
  {9421ef8c-82f7-410a-8b6d-11fc50b84a71}, !- Zone Air Node Name
  {3e8d3040-2441-47b1-8b2b-38e38fd0b608}, !- Zone Return Air Port List
  ,                                       !- Primary Daylighting Control Name
  ,                                       !- Fraction of Zone Controlled by Primary Daylighting Control
  ,                                       !- Secondary Daylighting Control Name
  ,                                       !- Fraction of Zone Controlled by Secondary Daylighting Control
  ,                                       !- Illuminance Map Name
  ,                                       !- Group Rendering Name
  ,                                       !- Thermostat Name
  No;                                     !- Use Ideal Air Loads

OS:Node,
  {cc11c5fb-06fa-42ea-82d1-d48d5d4e18cc}, !- Handle
  Node 2,                                 !- Name
  {9421ef8c-82f7-410a-8b6d-11fc50b84a71}, !- Inlet Port
  ;                                       !- Outlet Port

OS:Connection,
  {9421ef8c-82f7-410a-8b6d-11fc50b84a71}, !- Handle
  {ee753187-1080-4028-bd98-dad1cc293a4f}, !- Name
  {6609f498-fab9-4b3b-afdb-648f58430b76}, !- Source Object
  11,                                     !- Outlet Port
  {cc11c5fb-06fa-42ea-82d1-d48d5d4e18cc}, !- Target Object
  2;                                      !- Inlet Port

OS:PortList,
  {aa24aa19-2607-4ee2-88e9-631a273e907d}, !- Handle
  {a361eb6f-bdc5-45b6-9891-eeb19e17e153}, !- Name
  {6609f498-fab9-4b3b-afdb-648f58430b76}; !- HVAC Component

OS:PortList,
  {b7a1a6a9-d9a1-423d-8639-dc913dc84d1d}, !- Handle
  {3104ca04-07a3-4f35-8cc3-624639575048}, !- Name
  {6609f498-fab9-4b3b-afdb-648f58430b76}; !- HVAC Component

OS:PortList,
  {3e8d3040-2441-47b1-8b2b-38e38fd0b608}, !- Handle
  {8281ed80-7501-46bd-8fd7-020ae5b819ae}, !- Name
  {6609f498-fab9-4b3b-afdb-648f58430b76}; !- HVAC Component

OS:Sizing:Zone,
  {45f097a1-f57f-4255-aab4-ca3f77e10851}, !- Handle
  {6609f498-fab9-4b3b-afdb-648f58430b76}, !- Zone or ZoneList Name
  SupplyAirTemperature,                   !- Zone Cooling Design Supply Air Temperature Input Method
  14,                                     !- Zone Cooling Design Supply Air Temperature {C}
  11.11,                                  !- Zone Cooling Design Supply Air Temperature Difference {deltaC}
  SupplyAirTemperature,                   !- Zone Heating Design Supply Air Temperature Input Method
  40,                                     !- Zone Heating Design Supply Air Temperature {C}
  11.11,                                  !- Zone Heating Design Supply Air Temperature Difference {deltaC}
  0.0085,                                 !- Zone Cooling Design Supply Air Humidity Ratio {kg-H2O/kg-air}
  0.008,                                  !- Zone Heating Design Supply Air Humidity Ratio {kg-H2O/kg-air}
  ,                                       !- Zone Heating Sizing Factor
  ,                                       !- Zone Cooling Sizing Factor
  DesignDay,                              !- Cooling Design Air Flow Method
  ,                                       !- Cooling Design Air Flow Rate {m3/s}
  ,                                       !- Cooling Minimum Air Flow per Zone Floor Area {m3/s-m2}
  ,                                       !- Cooling Minimum Air Flow {m3/s}
  ,                                       !- Cooling Minimum Air Flow Fraction
  DesignDay,                              !- Heating Design Air Flow Method
  ,                                       !- Heating Design Air Flow Rate {m3/s}
  ,                                       !- Heating Maximum Air Flow per Zone Floor Area {m3/s-m2}
  ,                                       !- Heating Maximum Air Flow {m3/s}
  ,                                       !- Heating Maximum Air Flow Fraction
  ,                                       !- Design Zone Air Distribution Effectiveness in Cooling Mode
  ,                                       !- Design Zone Air Distribution Effectiveness in Heating Mode
  No,                                     !- Account for Dedicated Outdoor Air System
  NeutralSupplyAir,                       !- Dedicated Outdoor Air System Control Strategy
  autosize,                               !- Dedicated Outdoor Air Low Setpoint Temperature for Design {C}
  autosize;                               !- Dedicated Outdoor Air High Setpoint Temperature for Design {C}

OS:ZoneHVAC:EquipmentList,
  {071a8bb6-cd5c-4fde-8cde-9acddb96fa7a}, !- Handle
  Zone HVAC Equipment List 2,             !- Name
  {6609f498-fab9-4b3b-afdb-648f58430b76}; !- Thermal Zone

OS:Space,
  {70b4b160-310b-432b-ae70-f252513c357d}, !- Handle
  garage space,                           !- Name
  {15592981-dc99-4777-b37c-30d409ca0e8f}, !- Space Type Name
  ,                                       !- Default Construction Set Name
  ,                                       !- Default Schedule Set Name
  -0,                                     !- Direction of Relative North {deg}
  0,                                      !- X Origin {m}
  0,                                      !- Y Origin {m}
  0,                                      !- Z Origin {m}
  ,                                       !- Building Story Name
  {6609f498-fab9-4b3b-afdb-648f58430b76}; !- Thermal Zone Name

OS:Surface,
  {a45653c0-bad4-47ab-bf99-9b7b155085b1}, !- Handle
  Surface 1,                              !- Name
  Floor,                                  !- Surface Type
  {e0843402-2af9-4a14-9ad4-b6da6f3cbc92}, !- Construction Name
  {70b4b160-310b-432b-ae70-f252513c357d}, !- Space Name
  Foundation,                             !- Outside Boundary Condition
  {5854e6d7-4b38-48b0-b821-8c1e2dbfb6ee}, !- Outside Boundary Condition Object
  NoSun,                                  !- Sun Exposure
  NoWind,                                 !- Wind Exposure
  ,                                       !- View Factor to Ground
  ,                                       !- Number of Vertices
  8.91701625975123, -3.048, 0,            !- X,Y,Z Vertex 1 {m}
  8.91701625975123, 3.048, 0,             !- X,Y,Z Vertex 2 {m}
  12.5746162597512, 3.048, 0,             !- X,Y,Z Vertex 3 {m}
  12.5746162597512, -3.048, 0;            !- X,Y,Z Vertex 4 {m}

OS:Surface,
  {d52be408-30ab-4043-9449-aa68e8ca50c1}, !- Handle
  Surface 2,                              !- Name
  Wall,                                   !- Surface Type
  {fa982f98-9e7f-4c11-a149-7472be0d6a47}, !- Construction Name
  {70b4b160-310b-432b-ae70-f252513c357d}, !- Space Name
  Surface,                                !- Outside Boundary Condition
  {501aff3b-9813-4f2c-87d4-bd6131faf66b}, !- Outside Boundary Condition Object
  NoSun,                                  !- Sun Exposure
  NoWind,                                 !- Wind Exposure
  ,                                       !- View Factor to Ground
  ,                                       !- Number of Vertices
  8.91701625975123, 3.048, 2.4384,        !- X,Y,Z Vertex 1 {m}
  8.91701625975123, 3.048, 0,             !- X,Y,Z Vertex 2 {m}
  8.91701625975123, 0, 0,                 !- X,Y,Z Vertex 3 {m}
  8.91701625975123, 0, 2.4384;            !- X,Y,Z Vertex 4 {m}

OS:Surface,
  {dcf1f3b2-5e4e-4990-88a5-1e09c86c7573}, !- Handle
  Surface 3,                              !- Name
  Wall,                                   !- Surface Type
  {fa982f98-9e7f-4c11-a149-7472be0d6a47}, !- Construction Name
  {70b4b160-310b-432b-ae70-f252513c357d}, !- Space Name
  Surface,                                !- Outside Boundary Condition
  {f8657933-93e1-4707-a348-637f0926ecfa}, !- Outside Boundary Condition Object
  NoSun,                                  !- Sun Exposure
  NoWind,                                 !- Wind Exposure
  ,                                       !- View Factor to Ground
  ,                                       !- Number of Vertices
  12.5746162597512, 3.048, 2.4384,        !- X,Y,Z Vertex 1 {m}
  12.5746162597512, 3.048, 0,             !- X,Y,Z Vertex 2 {m}
  8.91701625975123, 3.048, 0,             !- X,Y,Z Vertex 3 {m}
  8.91701625975123, 3.048, 2.4384;        !- X,Y,Z Vertex 4 {m}

OS:Surface,
  {67f06371-05cf-473f-8b68-a5937ed942ba}, !- Handle
  Surface 4,                              !- Name
  Wall,                                   !- Surface Type
  {87780e5d-000f-4fa8-b466-7e495f1e0efb}, !- Construction Name
  {70b4b160-310b-432b-ae70-f252513c357d}, !- Space Name
  Outdoors,                               !- Outside Boundary Condition
  ,                                       !- Outside Boundary Condition Object
  SunExposed,                             !- Sun Exposure
  WindExposed,                            !- Wind Exposure
  ,                                       !- View Factor to Ground
  ,                                       !- Number of Vertices
  12.5746162597512, -3.048, 2.4384,       !- X,Y,Z Vertex 1 {m}
  12.5746162597512, -3.048, 0,            !- X,Y,Z Vertex 2 {m}
  12.5746162597512, 3.048, 0,             !- X,Y,Z Vertex 3 {m}