!- NOTE: Auto-generated from /test/osw_files/SFD_2000sqft_2story_FB_UA_Denver_ElectricBaseboard_CentralAC.osw

OS:Version,
  {ac71c26d-110b-4e3c-a29a-dce9b51066b8}, !- Handle
  2.9.1;                                  !- Version Identifier

OS:SimulationControl,
  {d8ce30d9-dea9-4c80-a71d-453c771de379}, !- Handle
  ,                                       !- Do Zone Sizing Calculation
  ,                                       !- Do System Sizing Calculation
  ,                                       !- Do Plant Sizing Calculation
  No;                                     !- Run Simulation for Sizing Periods

OS:Timestep,
  {07a5afc2-a61d-4ea6-ab97-dc79a90668ec}, !- Handle
  6;                                      !- Number of Timesteps per Hour

OS:ShadowCalculation,
  {3634249d-6187-48db-a952-97a34fd3690c}, !- Handle
  20,                                     !- Calculation Frequency
  200;                                    !- Maximum Figures in Shadow Overlap Calculations

OS:SurfaceConvectionAlgorithm:Outside,
  {652eab01-4397-4fb7-b800-34000979f736}, !- Handle
  DOE-2;                                  !- Algorithm

OS:SurfaceConvectionAlgorithm:Inside,
  {807342e7-e410-43b4-99c3-a4222f941eac}, !- Handle
  TARP;                                   !- Algorithm

OS:ZoneCapacitanceMultiplier:ResearchSpecial,
  {97b308f5-9f4f-4323-82fa-2859bc7aeb48}, !- Handle
  ,                                       !- Temperature Capacity Multiplier
  15,                                     !- Humidity Capacity Multiplier
  ;                                       !- Carbon Dioxide Capacity Multiplier

OS:RunPeriod,
  {28943dce-4bb7-43a1-93f7-23ec7def545c}, !- Handle
  Run Period 1,                           !- Name
  1,                                      !- Begin Month
  1,                                      !- Begin Day of Month
  12,                                     !- End Month
  31,                                     !- End Day of Month
  ,                                       !- Use Weather File Holidays and Special Days
  ,                                       !- Use Weather File Daylight Saving Period
  ,                                       !- Apply Weekend Holiday Rule
  ,                                       !- Use Weather File Rain Indicators
  ,                                       !- Use Weather File Snow Indicators
  ;                                       !- Number of Times Runperiod to be Repeated

OS:YearDescription,
  {e0c1dbfe-cb9e-4f8f-9316-2868a9aa04a7}, !- Handle
  2007,                                   !- Calendar Year
  ,                                       !- Day of Week for Start Day
  ;                                       !- Is Leap Year

OS:ThermalZone,
  {3df7d12f-eddd-4f1c-87cc-ac747ef84202}, !- Handle
  living zone,                            !- Name
  ,                                       !- Multiplier
  ,                                       !- Ceiling Height {m}
  ,                                       !- Volume {m3}
  ,                                       !- Floor Area {m2}
  ,                                       !- Zone Inside Convection Algorithm
  ,                                       !- Zone Outside Convection Algorithm
  ,                                       !- Zone Conditioning Equipment List Name
  {c720ea51-5a2f-423b-88e0-afee9f261f8d}, !- Zone Air Inlet Port List
  {c63699bc-1ec1-4f41-a2a5-e9281dd70f0f}, !- Zone Air Exhaust Port List
  {e37461a3-cd11-446b-b8b8-33cd6efaf54e}, !- Zone Air Node Name
  {6b0725cc-a7d2-47f5-b6df-1823e41c0a19}, !- Zone Return Air Port List
  ,                                       !- Primary Daylighting Control Name
  ,                                       !- Fraction of Zone Controlled by Primary Daylighting Control
  ,                                       !- Secondary Daylighting Control Name
  ,                                       !- Fraction of Zone Controlled by Secondary Daylighting Control
  ,                                       !- Illuminance Map Name
  ,                                       !- Group Rendering Name
  {5dcf46cb-a33e-4859-b8da-4aaf8d4e2fd7}, !- Thermostat Name
  No;                                     !- Use Ideal Air Loads

OS:Node,
  {8a798f49-a753-44b6-b3ad-003fc3499b99}, !- Handle
  Node 1,                                 !- Name
  {e37461a3-cd11-446b-b8b8-33cd6efaf54e}, !- Inlet Port
  ;                                       !- Outlet Port

OS:Connection,
  {e37461a3-cd11-446b-b8b8-33cd6efaf54e}, !- Handle
  {63733e63-84e2-4ab4-a509-e7192b55c6b8}, !- Name
  {3df7d12f-eddd-4f1c-87cc-ac747ef84202}, !- Source Object
  11,                                     !- Outlet Port
  {8a798f49-a753-44b6-b3ad-003fc3499b99}, !- Target Object
  2;                                      !- Inlet Port

OS:PortList,
  {c720ea51-5a2f-423b-88e0-afee9f261f8d}, !- Handle
  {8f2ea466-0412-4f71-841d-557b9b12b306}, !- Name
  {3df7d12f-eddd-4f1c-87cc-ac747ef84202}, !- HVAC Component
  {d0dbf368-734b-4122-9c6d-72d9e8bc2124}; !- Port 1

OS:PortList,
  {c63699bc-1ec1-4f41-a2a5-e9281dd70f0f}, !- Handle
  {c48a776e-8cfd-45e6-91ab-a71fb7dc58f2}, !- Name
  {3df7d12f-eddd-4f1c-87cc-ac747ef84202}; !- HVAC Component

OS:PortList,
  {6b0725cc-a7d2-47f5-b6df-1823e41c0a19}, !- Handle
  {7830fc1d-505e-4591-8f6f-e7dabbbab45b}, !- Name
  {3df7d12f-eddd-4f1c-87cc-ac747ef84202}, !- HVAC Component
  {2c658581-5832-440f-bd84-8db7f4bf3a6d}; !- Port 1

OS:Sizing:Zone,
  {8a66fd0b-f880-4b63-9948-6f84af9b523e}, !- Handle
  {3df7d12f-eddd-4f1c-87cc-ac747ef84202}, !- Zone or ZoneList Name
  SupplyAirTemperature,                   !- Zone Cooling Design Supply Air Temperature Input Method
  14,                                     !- Zone Cooling Design Supply Air Temperature {C}
  11.11,                                  !- Zone Cooling Design Supply Air Temperature Difference {deltaC}
  SupplyAirTemperature,                   !- Zone Heating Design Supply Air Temperature Input Method
  40,                                     !- Zone Heating Design Supply Air Temperature {C}
  11.11,                                  !- Zone Heating Design Supply Air Temperature Difference {deltaC}
  0.0085,                                 !- Zone Cooling Design Supply Air Humidity Ratio {kg-H2O/kg-air}
  0.008,                                  !- Zone Heating Design Supply Air Humidity Ratio {kg-H2O/kg-air}
  ,                                       !- Zone Heating Sizing Factor
  ,                                       !- Zone Cooling Sizing Factor
  DesignDay,                              !- Cooling Design Air Flow Method
  ,                                       !- Cooling Design Air Flow Rate {m3/s}
  ,                                       !- Cooling Minimum Air Flow per Zone Floor Area {m3/s-m2}
  ,                                       !- Cooling Minimum Air Flow {m3/s}
  ,                                       !- Cooling Minimum Air Flow Fraction
  DesignDay,                              !- Heating Design Air Flow Method
  ,                                       !- Heating Design Air Flow Rate {m3/s}
  ,                                       !- Heating Maximum Air Flow per Zone Floor Area {m3/s-m2}
  ,                                       !- Heating Maximum Air Flow {m3/s}
  ,                                       !- Heating Maximum Air Flow Fraction
  ,                                       !- Design Zone Air Distribution Effectiveness in Cooling Mode
  ,                                       !- Design Zone Air Distribution Effectiveness in Heating Mode
  No,                                     !- Account for Dedicated Outdoor Air System
  NeutralSupplyAir,                       !- Dedicated Outdoor Air System Control Strategy
  autosize,                               !- Dedicated Outdoor Air Low Setpoint Temperature for Design {C}
  autosize;                               !- Dedicated Outdoor Air High Setpoint Temperature for Design {C}

OS:ZoneHVAC:EquipmentList,
  {ccefdd7d-3a47-414b-9543-ef2726549b09}, !- Handle
  Zone HVAC Equipment List 1,             !- Name
  {3df7d12f-eddd-4f1c-87cc-ac747ef84202}, !- Thermal Zone
  SequentialLoad,                         !- Load Distribution Scheme
  {6e4ddcc0-ed99-4591-90b3-f339358a26da}, !- Zone Equipment 1
  1,                                      !- Zone Equipment Cooling Sequence 1
  1,                                      !- Zone Equipment Heating or No-Load Sequence 1
  ,                                       !- Zone Equipment Sequential Cooling Fraction Schedule Name 1
  ,                                       !- Zone Equipment Sequential Heating Fraction Schedule Name 1
  {a9c305fe-eabe-469d-b73b-909309dac4e7}, !- Zone Equipment 2
  2,                                      !- Zone Equipment Cooling Sequence 2
  2,                                      !- Zone Equipment Heating or No-Load Sequence 2
  ,                                       !- Zone Equipment Sequential Cooling Fraction Schedule Name 2
  ;                                       !- Zone Equipment Sequential Heating Fraction Schedule Name 2

OS:ThermalZone,
  {2187eb38-84a9-493a-b6e3-45e5cf0e5940}, !- Handle
  garage zone,                            !- Name
  ,                                       !- Multiplier
  ,                                       !- Ceiling Height {m}
  ,                                       !- Volume {m3}
  ,                                       !- Floor Area {m2}
  ,                                       !- Zone Inside Convection Algorithm
  ,                                       !- Zone Outside Convection Algorithm
  ,                                       !- Zone Conditioning Equipment List Name
  {4661b287-cf94-45f9-8902-50c23dfaacb8}, !- Zone Air Inlet Port List
  {3bdd725a-6a69-4f1b-8e8c-5f4df6c9e755}, !- Zone Air Exhaust Port List
  {e22a90eb-2cf1-4a45-a99c-140982e2e263}, !- Zone Air Node Name
  {8bb77046-6ebf-4e26-b48e-f824c8dd5951}, !- Zone Return Air Port List
  ,                                       !- Primary Daylighting Control Name
  ,                                       !- Fraction of Zone Controlled by Primary Daylighting Control
  ,                                       !- Secondary Daylighting Control Name
  ,                                       !- Fraction of Zone Controlled by Secondary Daylighting Control
  ,                                       !- Illuminance Map Name
  ,                                       !- Group Rendering Name
  ,                                       !- Thermostat Name
  No;                                     !- Use Ideal Air Loads

OS:Node,
  {46c864c6-767f-418e-b6e3-6358f10cc2f5}, !- Handle
  Node 2,                                 !- Name
  {e22a90eb-2cf1-4a45-a99c-140982e2e263}, !- Inlet Port
  ;                                       !- Outlet Port

OS:Connection,
  {e22a90eb-2cf1-4a45-a99c-140982e2e263}, !- Handle
  {7822bc6f-db56-4d86-9590-b102d98a6c90}, !- Name
  {2187eb38-84a9-493a-b6e3-45e5cf0e5940}, !- Source Object
  11,                                     !- Outlet Port
  {46c864c6-767f-418e-b6e3-6358f10cc2f5}, !- Target Object
  2;                                      !- Inlet Port

OS:PortList,
  {4661b287-cf94-45f9-8902-50c23dfaacb8}, !- Handle
  {64872acf-766d-4e85-be78-7e18a87f4501}, !- Name
  {2187eb38-84a9-493a-b6e3-45e5cf0e5940}; !- HVAC Component

OS:PortList,
  {3bdd725a-6a69-4f1b-8e8c-5f4df6c9e755}, !- Handle
  {c26701c7-fb87-4ff5-b5bb-afe6aa738db4}, !- Name
  {2187eb38-84a9-493a-b6e3-45e5cf0e5940}; !- HVAC Component

OS:PortList,
  {8bb77046-6ebf-4e26-b48e-f824c8dd5951}, !- Handle
  {46b63476-5496-4b78-bd96-0675b829f520}, !- Name
  {2187eb38-84a9-493a-b6e3-45e5cf0e5940}; !- HVAC Component

OS:Sizing:Zone,
  {f54ee682-1c8f-4de9-bc4c-75bbd12a582a}, !- Handle
  {2187eb38-84a9-493a-b6e3-45e5cf0e5940}, !- Zone or ZoneList Name
  SupplyAirTemperature,                   !- Zone Cooling Design Supply Air Temperature Input Method
  14,                                     !- Zone Cooling Design Supply Air Temperature {C}
  11.11,                                  !- Zone Cooling Design Supply Air Temperature Difference {deltaC}
  SupplyAirTemperature,                   !- Zone Heating Design Supply Air Temperature Input Method
  40,                                     !- Zone Heating Design Supply Air Temperature {C}
  11.11,                                  !- Zone Heating Design Supply Air Temperature Difference {deltaC}
  0.0085,                                 !- Zone Cooling Design Supply Air Humidity Ratio {kg-H2O/kg-air}
  0.008,                                  !- Zone Heating Design Supply Air Humidity Ratio {kg-H2O/kg-air}
  ,                                       !- Zone Heating Sizing Factor
  ,                                       !- Zone Cooling Sizing Factor
  DesignDay,                              !- Cooling Design Air Flow Method
  ,                                       !- Cooling Design Air Flow Rate {m3/s}
  ,                                       !- Cooling Minimum Air Flow per Zone Floor Area {m3/s-m2}
  ,                                       !- Cooling Minimum Air Flow {m3/s}
  ,                                       !- Cooling Minimum Air Flow Fraction
  DesignDay,                              !- Heating Design Air Flow Method
  ,                                       !- Heating Design Air Flow Rate {m3/s}
  ,                                       !- Heating Maximum Air Flow per Zone Floor Area {m3/s-m2}
  ,                                       !- Heating Maximum Air Flow {m3/s}
  ,                                       !- Heating Maximum Air Flow Fraction
  ,                                       !- Design Zone Air Distribution Effectiveness in Cooling Mode
  ,                                       !- Design Zone Air Distribution Effectiveness in Heating Mode
  No,                                     !- Account for Dedicated Outdoor Air System
  NeutralSupplyAir,                       !- Dedicated Outdoor Air System Control Strategy
  autosize,                               !- Dedicated Outdoor Air Low Setpoint Temperature for Design {C}
  autosize;                               !- Dedicated Outdoor Air High Setpoint Temperature for Design {C}

OS:ZoneHVAC:EquipmentList,
  {fffcb396-7d5b-46e4-ac2e-262e897a94ec}, !- Handle
  Zone HVAC Equipment List 2,             !- Name
  {2187eb38-84a9-493a-b6e3-45e5cf0e5940}; !- Thermal Zone

OS:Space,
  {e47b9c17-a986-4140-addf-9ea66dd27ee6}, !- Handle
  garage space,                           !- Name
  {8744b0ef-30d9-4128-ace1-cb217ba76293}, !- Space Type Name
  ,                                       !- Default Construction Set Name
  ,                                       !- Default Schedule Set Name
  -0,                                     !- Direction of Relative North {deg}
  0,                                      !- X Origin {m}
  0,                                      !- Y Origin {m}
  0,                                      !- Z Origin {m}
  ,                                       !- Building Story Name
  {2187eb38-84a9-493a-b6e3-45e5cf0e5940}; !- Thermal Zone Name

OS:Surface,
  {9fa88a6c-6b79-4571-976f-54380bb8c81d}, !- Handle
  Surface 1,                              !- Name
  Floor,                                  !- Surface Type
  ,                                       !- Construction Name
  {e47b9c17-a986-4140-addf-9ea66dd27ee6}, !- Space Name
  Foundation,                             !- Outside Boundary Condition
  ,                                       !- Outside Boundary Condition Object
  NoSun,                                  !- Sun Exposure
  NoWind,                                 !- Wind Exposure
  ,                                       !- View Factor to Ground
  ,                                       !- Number of Vertices
  5.57695129776527, -3.048, 0,            !- X,Y,Z Vertex 1 {m}
  5.57695129776527, 3.048, 0,             !- X,Y,Z Vertex 2 {m}
  11.6729512977653, 3.048, 0,             !- X,Y,Z Vertex 3 {m}
  11.6729512977653, -3.048, 0;            !- X,Y,Z Vertex 4 {m}

OS:Surface,
  {94449297-aca6-4ff8-9195-b58e1072b340}, !- Handle
  Surface 2,                              !- Name
  Wall,                                   !- Surface Type
  ,                                       !- Construction Name
  {e47b9c17-a986-4140-addf-9ea66dd27ee6}, !- Space Name
  Surface,                                !- Outside Boundary Condition
  {567526b0-2c79-4d40-8d7f-69c8ea0005b0}, !- Outside Boundary Condition Object
  NoSun,                                  !- Sun Exposure
  NoWind,                                 !- Wind Exposure
  ,                                       !- View Factor to Ground
  ,                                       !- Number of Vertices
  5.57695129776527, 3.048, 2.4384,        !- X,Y,Z Vertex 1 {m}
  5.57695129776527, 3.048, 0,             !- X,Y,Z Vertex 2 {m}
  5.57695129776527, 0, 0,                 !- X,Y,Z Vertex 3 {m}
  5.57695129776527, 0, 2.4384;            !- X,Y,Z Vertex 4 {m}

OS:Surface,
  {990ab310-f681-4903-b8ec-f273bcaf3985}, !- Handle
  Surface 3,                              !- Name
  Wall,                                   !- Surface Type
  ,                                       !- Construction Name
  {e47b9c17-a986-4140-addf-9ea66dd27ee6}, !- Space Name
  Surface,                                !- Outside Boundary Condition
  {154cddca-ebef-450c-8c86-b6b99b554efd}, !- Outside Boundary Condition Object
  NoSun,                                  !- Sun Exposure
  NoWind,                                 !- Wind Exposure
  ,                                       !- View Factor to Ground
  ,                                       !- Number of Vertices
  11.6729512977653, 3.048, 2.4384,        !- X,Y,Z Vertex 1 {m}
  11.6729512977653, 3.048, 0,             !- X,Y,Z Vertex 2 {m}
  5.57695129776527, 3.048, 0,             !- X,Y,Z Vertex 3 {m}
  5.57695129776527, 3.048, 2.4384;        !- X,Y,Z Vertex 4 {m}

OS:Surface,
  {f4c56538-acbe-478f-9bc2-7a841ab80f3c}, !- Handle
  Surface 4,                              !- Name
  Wall,                                   !- Surface Type
  ,                                       !- Construction Name
  {e47b9c17-a986-4140-addf-9ea66dd27ee6}, !- Space Name
  Outdoors,                               !- Outside Boundary Condition
  ,                                       !- Outside Boundary Condition Object
  SunExposed,                             !- Sun Exposure
  WindExposed,                            !- Wind Exposure
  ,                                       !- View Factor to Ground
  ,                                       !- Number of Vertices
  11.6729512977653, -3.048, 2.4384,       !- X,Y,Z Vertex 1 {m}
  11.6729512977653, -3.048, 0,            !- X,Y,Z Vertex 2 {m}
  11.6729512977653, 3.048, 0,             !- X,Y,Z Vertex 3 {m}
  11.6729512977653, 3.048, 2.4384;        !- X,Y,Z Vertex 4 {m}

OS:Surface,
  {682ac7c1-6120-422b-a1d5-c6a8ccc9e710}, !- Handle
  Surface 5,                              !- Name
  Wall,                                   !- Surface Type
  ,                                       !- Construction Name
  {e47b9c17-a986-4140-addf-9ea66dd27ee6}, !- Space Name
  Outdoors,                               !- Outside Boundary Condition
  ,                                       !- Outside Boundary Condition Object
  SunExposed,                             !- Sun Exposure
  WindExposed,                            !- Wind Exposure
  ,                                       !- View Factor to Ground
  ,                                       !- Number of Vertices
  5.57695129776527, -3.048, 2.4384,       !- X,Y,Z Vertex 1 {m}
  5.57695129776527, -3.048, 0,            !- X,Y,Z Vertex 2 {m}
  11.6729512977653, -3.048, 0,            !- X,Y,Z Vertex 3 {m}
  11.6729512977653, -3.048, 2.4384;       !- X,Y,Z Vertex 4 {m}

OS:Surface,
  {a0e428a4-b4e9-4d75-989f-9ad9521f08db}, !- Handle
  Surface 6,                              !- Name
  RoofCeiling,                            !- Surface Type
  ,                                       !- Construction Name
  {e47b9c17-a986-4140-addf-9ea66dd27ee6}, !- Space Name
  Surface,                                !- Outside Boundary Condition
  {5d0f81fa-216e-4544-9072-1aea29b4ed4b}, !- Outside Boundary Condition Object
  NoSun,                                  !- Sun Exposure
  NoWind,                                 !- Wind Exposure
  ,                                       !- View Factor to Ground
  ,                                       !- Number of Vertices
  11.6729512977653, -3.048, 2.4384,       !- X,Y,Z Vertex 1 {m}
  11.6729512977653, 3.048, 2.4384,        !- X,Y,Z Vertex 2 {m}
  5.57695129776527, 3.048, 2.4384,        !- X,Y,Z Vertex 3 {m}
  5.57695129776527, -3.048, 2.4384;       !- X,Y,Z Vertex 4 {m}

OS:SpaceType,
  {8744b0ef-30d9-4128-ace1-cb217ba76293}, !- Handle
  Space Type 1,                           !- Name
  ,                                       !- Default Construction Set Name
  ,                                       !- Default Schedule Set Name
  ,                                       !- Group Rendering Name
  ,                                       !- Design Specification Outdoor Air Object Name
  ,                                       !- Standards Template
  ,                                       !- Standards Building Type
  garage;                                 !- Standards Space Type

OS:Space,
  {8407766f-ea49-4f8c-a4fd-f2b872b85ebe}, !- Handle
  living space,                           !- Name
  {56d2d958-39cd-40ef-895f-30a69fbb7662}, !- Space Type Name
  ,                                       !- Default Construction Set Name
  ,                                       !- Default Schedule Set Name
  -0,                                     !- Direction of Relative North {deg}
  0,                                      !- X Origin {m}
  0,                                      !- Y Origin {m}
  0,                                      !- Z Origin {m}
  ,                                       !- Building Story Name
  {3df7d12f-eddd-4f1c-87cc-ac747ef84202}, !- Thermal Zone Name
  ,                                       !- Part of Total Floor Area
  ,                                       !- Design Specification Outdoor Air Object Name
  {5a45d549-1b16-44b8-82be-f1f6fd956deb}; !- Building Unit Name

OS:Surface,
  {1d61f161-4eb6-4649-b366-f524634c9b3d}, !- Handle
  Surface 7,                              !- Name
  Floor,                                  !- Surface Type
  ,                                       !- Construction Name
  {8407766f-ea49-4f8c-a4fd-f2b872b85ebe}, !- Space Name
  Surface,                                !- Outside Boundary Condition
  {5e637ddb-19db-4350-9956-87f97f62960a}, !- Outside Boundary Condition Object
  NoSun,                                  !- Sun Exposure
  NoWind,                                 !- Wind Exposure
  ,                                       !- View Factor to Ground
  ,                                       !- Number of Vertices
  0, 0, 0,                                !- X,Y,Z Vertex 1 {m}
  0, 5.83647564888264, 0,                 !- X,Y,Z Vertex 2 {m}
  11.6729512977653, 5.83647564888264, 0,  !- X,Y,Z Vertex 3 {m}
  11.6729512977653, 3.048, 0,             !- X,Y,Z Vertex 4 {m}
  5.57695129776527, 3.048, 0,             !- X,Y,Z Vertex 5 {m}
  5.57695129776527, 0, 0;                 !- X,Y,Z Vertex 6 {m}

OS:Surface,
  {55fe2dd3-11f6-4d65-8e4b-4662ab21f151}, !- Handle
  Surface 8,                              !- Name
  Wall,                                   !- Surface Type
  ,                                       !- Construction Name
  {8407766f-ea49-4f8c-a4fd-f2b872b85ebe}, !- Space Name
  Outdoors,                               !- Outside Boundary Condition
  ,                                       !- Outside Boundary Condition Object
  SunExposed,                             !- Sun Exposure
  WindExposed,                            !- Wind Exposure
  ,                                       !- View Factor to Ground
  ,                                       !- Number of Vertices
  0, 5.83647564888264, 2.4384,            !- X,Y,Z Vertex 1 {m}
  0, 5.83647564888264, 0,                 !- X,Y,Z Vertex 2 {m}
  0, 0, 0,                                !- X,Y,Z Vertex 3 {m}
  0, 0, 2.4384;                           !- X,Y,Z Vertex 4 {m}

OS:Surface,
  {866a9590-146a-4afd-bf4c-fb44268a3e54}, !- Handle
  Surface 9,                              !- Name
  Wall,                                   !- Surface Type
  ,                                       !- Construction Name
  {8407766f-ea49-4f8c-a4fd-f2b872b85ebe}, !- Space Name
  Outdoors,                               !- Outside Boundary Condition
  ,                                       !- Outside Boundary Condition Object
  SunExposed,                             !- Sun Exposure
  WindExposed,                            !- Wind Exposure
  ,                                       !- View Factor to Ground
  ,                                       !- Number of Vertices
  11.6729512977653, 5.83647564888264, 2.4384, !- X,Y,Z Vertex 1 {m}
  11.6729512977653, 5.83647564888264, 0,  !- X,Y,Z Vertex 2 {m}
  0, 5.83647564888264, 0,                 !- X,Y,Z Vertex 3 {m}
  0, 5.83647564888264, 2.4384;            !- X,Y,Z Vertex 4 {m}

OS:Surface,
  {5f072170-f6b2-46f2-b05a-c8bb412cacc0}, !- Handle
  Surface 10,                             !- Name
  Wall,                                   !- Surface Type
  ,                                       !- Construction Name
  {8407766f-ea49-4f8c-a4fd-f2b872b85ebe}, !- Space Name
  Outdoors,                               !- Outside Boundary Condition
  ,                                       !- Outside Boundary Condition Object
  SunExposed,                             !- Sun Exposure
  WindExposed,                            !- Wind Exposure
  ,                                       !- View Factor to Ground
  ,                                       !- Number of Vertices
  11.6729512977653, 3.048, 2.4384,        !- X,Y,Z Vertex 1 {m}
  11.6729512977653, 3.048, 0,             !- X,Y,Z Vertex 2 {m}
  11.6729512977653, 5.83647564888264, 0,  !- X,Y,Z Vertex 3 {m}
  11.6729512977653, 5.83647564888264, 2.4384; !- X,Y,Z Vertex 4 {m}

OS:Surface,
  {154cddca-ebef-450c-8c86-b6b99b554efd}, !- Handle
  Surface 11,                             !- Name
  Wall,                                   !- Surface Type
  ,                                       !- Construction Name
  {8407766f-ea49-4f8c-a4fd-f2b872b85ebe}, !- Space Name
  Surface,                                !- Outside Boundary Condition
  {990ab310-f681-4903-b8ec-f273bcaf3985}, !- Outside Boundary Condition Object
  NoSun,                                  !- Sun Exposure
  NoWind,                                 !- Wind Exposure
  ,                                       !- View Factor to Ground
  ,                                       !- Number of Vertices
  5.57695129776527, 3.048, 2.4384,        !- X,Y,Z Vertex 1 {m}
  5.57695129776527, 3.048, 0,             !- X,Y,Z Vertex 2 {m}
  11.6729512977653, 3.048, 0,             !- X,Y,Z Vertex 3 {m}
  11.6729512977653, 3.048, 2.4384;        !- X,Y,Z Vertex 4 {m}

OS:Surface,
  {567526b0-2c79-4d40-8d7f-69c8ea0005b0}, !- Handle
  Surface 12,                             !- Name
  Wall,                                   !- Surface Type
  ,                                       !- Construction Name
  {8407766f-ea49-4f8c-a4fd-f2b872b85ebe}, !- Space Name
  Surface,                                !- Outside Boundary Condition
  {94449297-aca6-4ff8-9195-b58e1072b340}, !- Outside Boundary Condition Object
  NoSun,                                  !- Sun Exposure
  NoWind,                                 !- Wind Exposure
  ,                                       !- View Factor to Ground
  ,                                       !- Number of Vertices
  5.57695129776527, 0, 2.4384,            !- X,Y,Z Vertex 1 {m}
  5.57695129776527, 0, 0,                 !- X,Y,Z Vertex 2 {m}
  5.57695129776527, 3.048, 0,             !- X,Y,Z Vertex 3 {m}
  5.57695129776527, 3.048, 2.4384;        !- X,Y,Z Vertex 4 {m}

OS:Surface,
  {32a16089-5c33-496a-ac73-dd1222f73365}, !- Handle
  Surface 13,                             !- Name
  Wall,                                   !- Surface Type
  ,                                       !- Construction Name
  {8407766f-ea49-4f8c-a4fd-f2b872b85ebe}, !- Space Name
  Outdoors,                               !- Outside Boundary Condition
  ,                                       !- Outside Boundary Condition Object
  SunExposed,                             !- Sun Exposure
  WindExposed,                            !- Wind Exposure
  ,                                       !- View Factor to Ground
  ,                                       !- Number of Vertices
  0, 0, 2.4384,                           !- X,Y,Z Vertex 1 {m}
  0, 0, 0,                                !- X,Y,Z Vertex 2 {m}
  5.57695129776527, 0, 0,                 !- X,Y,Z Vertex 3 {m}
  5.57695129776527, 0, 2.4384;            !- X,Y,Z Vertex 4 {m}

OS:Surface,
  {8420861c-066e-4e04-aabf-542f34c4db37}, !- Handle
  Surface 14,                             !- Name
  RoofCeiling,                            !- Surface Type
  ,                                       !- Construction Name
  {8407766f-ea49-4f8c-a4fd-f2b872b85ebe}, !- Space Name
  Surface,                                !- Outside Boundary Condition
  {949667c0-7a5c-4ef5-ac4d-28f251fdb7b7}, !- Outside Boundary Condition Object
  NoSun,                                  !- Sun Exposure
  NoWind,                                 !- Wind Exposure
  ,                                       !- View Factor to Ground
  ,                                       !- Number of Vertices
  5.57695129776527, 0, 2.4384,            !- X,Y,Z Vertex 1 {m}
  5.57695129776527, 3.048, 2.4384,        !- X,Y,Z Vertex 2 {m}
  11.6729512977653, 3.048, 2.4384,        !- X,Y,Z Vertex 3 {m}