!- NOTE: Auto-generated from /test/osw_files/SFD_HVACSizing_Equip_Dehumidifier_Fixed_Miami.osw

OS:Version,
  {52c23970-7a28-438c-93e8-1e47b6e8c535}, !- Handle
  2.8.1;                                  !- Version Identifier

OS:SimulationControl,
  {6bc310d9-b1cc-454a-a44b-655b26a6bdfc}, !- Handle
  ,                                       !- Do Zone Sizing Calculation
  ,                                       !- Do System Sizing Calculation
  ,                                       !- Do Plant Sizing Calculation
  No;                                     !- Run Simulation for Sizing Periods

OS:Timestep,
  {2f41cae0-0bb8-4197-bad0-d4f4b4b68e47}, !- Handle
  6;                                      !- Number of Timesteps per Hour

OS:ShadowCalculation,
  {629039ca-510d-4e72-997d-2c405585c075}, !- Handle
  20,                                     !- Calculation Frequency
  200;                                    !- Maximum Figures in Shadow Overlap Calculations

OS:SurfaceConvectionAlgorithm:Outside,
  {fdc7be76-a2c7-4b10-95c3-16ad18f13975}, !- Handle
  DOE-2;                                  !- Algorithm

OS:SurfaceConvectionAlgorithm:Inside,
  {aa67fc5d-a3cc-472a-bfbe-12be36fb3f37}, !- Handle
  TARP;                                   !- Algorithm

OS:ZoneCapacitanceMultiplier:ResearchSpecial,
  {bf8ccadb-6124-457a-ad4a-119aabf87ee6}, !- Handle
  ,                                       !- Temperature Capacity Multiplier
  15,                                     !- Humidity Capacity Multiplier
  ;                                       !- Carbon Dioxide Capacity Multiplier

OS:RunPeriod,
  {7985b15b-e2f4-47da-86d5-52394753cde5}, !- Handle
  Run Period 1,                           !- Name
  1,                                      !- Begin Month
  1,                                      !- Begin Day of Month
  12,                                     !- End Month
  31,                                     !- End Day of Month
  ,                                       !- Use Weather File Holidays and Special Days
  ,                                       !- Use Weather File Daylight Saving Period
  ,                                       !- Apply Weekend Holiday Rule
  ,                                       !- Use Weather File Rain Indicators
  ,                                       !- Use Weather File Snow Indicators
  ;                                       !- Number of Times Runperiod to be Repeated

OS:YearDescription,
  {06f5be33-507d-40c4-866e-256c8c2e3c34}, !- Handle
  2007,                                   !- Calendar Year
  ,                                       !- Day of Week for Start Day
  ;                                       !- Is Leap Year

OS:WeatherFile,
  {e9354ac6-1148-4633-a8fa-6874da78dda4}, !- Handle
  Miami Intl Ap,                          !- City
  FL,                                     !- State Province Region
  USA,                                    !- Country
  TMY3,                                   !- Data Source
  722020,                                 !- WMO Number
  25.82,                                  !- Latitude {deg}
  -80.3,                                  !- Longitude {deg}
  -5,                                     !- Time Zone {hr}
  11,                                     !- Elevation {m}
  file:../weather/USA_FL_Miami.Intl.AP.722020_TMY3.epw, !- Url
  7D992F19;                               !- Checksum

OS:AdditionalProperties,
  {e31b0424-3211-4bdd-9ef9-d804ba1013c4}, !- Handle
  {e9354ac6-1148-4633-a8fa-6874da78dda4}, !- Object Name
  EPWHeaderCity,                          !- Feature Name 1
  String,                                 !- Feature Data Type 1
  Miami Intl Ap,                          !- Feature Value 1
  EPWHeaderState,                         !- Feature Name 2
  String,                                 !- Feature Data Type 2
  FL,                                     !- Feature Value 2
  EPWHeaderCountry,                       !- Feature Name 3
  String,                                 !- Feature Data Type 3
  USA,                                    !- Feature Value 3
  EPWHeaderDataSource,                    !- Feature Name 4
  String,                                 !- Feature Data Type 4
  TMY3,                                   !- Feature Value 4
  EPWHeaderStation,                       !- Feature Name 5
  String,                                 !- Feature Data Type 5
  722020,                                 !- Feature Value 5
  EPWHeaderLatitude,                      !- Feature Name 6
  Double,                                 !- Feature Data Type 6
  25.82,                                  !- Feature Value 6
  EPWHeaderLongitude,                     !- Feature Name 7
  Double,                                 !- Feature Data Type 7
  -80.299999999999997,                    !- Feature Value 7
  EPWHeaderTimezone,                      !- Feature Name 8
  Double,                                 !- Feature Data Type 8
  -5,                                     !- Feature Value 8
  EPWHeaderAltitude,                      !- Feature Name 9
  Double,                                 !- Feature Data Type 9
  36.089238845144358,                     !- Feature Value 9
  EPWHeaderLocalPressure,                 !- Feature Name 10
  Double,                                 !- Feature Data Type 10
  0.99867279752375582,                    !- Feature Value 10
  EPWHeaderRecordsPerHour,                !- Feature Name 11
  Double,                                 !- Feature Data Type 11
  0,                                      !- Feature Value 11
  EPWDataAnnualAvgDrybulb,                !- Feature Name 12
  Double,                                 !- Feature Data Type 12
  76.112431506849646,                     !- Feature Value 12
  EPWDataAnnualMinDrybulb,                !- Feature Name 13
  Double,                                 !- Feature Data Type 13
  41,                                     !- Feature Value 13
  EPWDataAnnualMaxDrybulb,                !- Feature Name 14
  Double,                                 !- Feature Data Type 14
  96.079999999999998,                     !- Feature Value 14
  EPWDataCDD50F,                          !- Feature Name 15
  Double,                                 !- Feature Data Type 15
  9531.0375000000095,                     !- Feature Value 15
  EPWDataCDD65F,                          !- Feature Name 16
  Double,                                 !- Feature Data Type 16
  4195.6950000000024,                     !- Feature Value 16
  EPWDataHDD50F,                          !- Feature Name 17
  Double,                                 !- Feature Data Type 17
  0,                                      !- Feature Value 17
  EPWDataHDD65F,                          !- Feature Name 18
  Double,                                 !- Feature Data Type 18
  139.65749999999994,                     !- Feature Value 18
  EPWDataAnnualAvgWindspeed,              !- Feature Name 19
  Double,                                 !- Feature Data Type 19
  4.1177511415521071,                     !- Feature Value 19
  EPWDataMonthlyAvgDrybulbs,              !- Feature Name 20
  String,                                 !- Feature Data Type 20
  66.95193548387095&#4469.5634821428572&#4470.82532258064509&#4475.40050000000002&#4479.54733870967738&#4481.83024999999998&#4482.63032258064513&#4482.35137096774197&#4481.48900000000006&#4479.41935483870965&#4474.45850000000013&#4468.52959677419348, !- Feature Value 20
  EPWDataGroundMonthlyTemps,              !- Feature Name 21
  String,                                 !- Feature Data Type 21
  73.49949161266244&#4472.30037030421141&#4472.20434036952582&#4472.77338470116848&#4475.05778059628489&#4477.33153480622997&#4479.3027581871666&#4480.55147971773891&#4480.65756547050086&#4479.64194038682461&#4477.72098435943627&#4475.51697966748856, !- Feature Value 21
  EPWDataWSF,                             !- Feature Name 22
  Double,                                 !- Feature Data Type 22
  0.40999999999999998,                    !- Feature Value 22
  EPWDataMonthlyAvgDailyHighDrybulbs,     !- Feature Name 23
  String,                                 !- Feature Data Type 23
  74.53225806451614&#4477.66214285714287&#4477.27290322580646&#4481.72800000000001&#4486.04064516129033&#4486.98400000000001&#4490.42451612903224&#4488.4967741935484&#4487.90800000000002&#4485.89548387096775&#4480.03600000000002&#4475.40903225806453, !- Feature Value 23
  EPWDataMonthlyAvgDailyLowDrybulbs,      !- Feature Name 24
  String,                                 !- Feature Data Type 24
  59.80709677419355&#4461.73857142857143&#4464.17935483870968&#4469.69800000000001&#4474.1606451612903&#4476.73&#4476.30322580645162&#4477.12774193548387&#4475.84199999999998&#4474.00387096774193&#4467.946&#4461.816129032258054, !- Feature Value 24
  EPWDesignHeatingDrybulb,                !- Feature Name 25
  Double,                                 !- Feature Data Type 25
  51.980000000000004,                     !- Feature Value 25
  EPWDesignHeatingWindspeed,              !- Feature Name 26
  Double,                                 !- Feature Data Type 26
  3.7461538461538462,                     !- Feature Value 26
  EPWDesignCoolingDrybulb,                !- Feature Name 27
  Double,                                 !- Feature Data Type 27
  89.960000000000008,                     !- Feature Value 27
  EPWDesignCoolingWetbulb,                !- Feature Name 28
  Double,                                 !- Feature Data Type 28
  77.005134139097905,                     !- Feature Value 28
  EPWDesignCoolingHumidityRatio,          !- Feature Name 29
  Double,                                 !- Feature Data Type 29
  0.016947724336000048,                   !- Feature Value 29
  EPWDesignCoolingWindspeed,              !- Feature Name 30
  Double,                                 !- Feature Data Type 30
  4.5874999999999959,                     !- Feature Value 30
  EPWDesignDailyTemperatureRange,         !- Feature Name 31
  Double,                                 !- Feature Data Type 31
  11.369032258064536,                     !- Feature Value 31
  EPWDesignDehumidDrybulb,                !- Feature Name 32
  Double,                                 !- Feature Data Type 32
  81.970769230769221,                     !- Feature Value 32
  EPWDesignDehumidHumidityRatio,          !- Feature Name 33
  Double,                                 !- Feature Data Type 33
  0.019380342324718424,                   !- Feature Value 33
  EPWDesignCoolingDirectNormal,           !- Feature Name 34
  Double,                                 !- Feature Data Type 34
  817,                                    !- Feature Value 34
  EPWDesignCoolingDiffuseHorizontal,      !- Feature Name 35
  Double,                                 !- Feature Data Type 35
  229;                                    !- Feature Value 35

OS:Site,
  {ae92af11-8fa9-4556-a603-bfa9f260ad8f}, !- Handle
  Miami Intl Ap_FL_USA,                   !- Name
  25.82,                                  !- Latitude {deg}
  -80.3,                                  !- Longitude {deg}
  -5,                                     !- Time Zone {hr}
  11,                                     !- Elevation {m}
  Suburbs;                                !- Terrain

OS:ClimateZones,
  {2d9ced83-facf-4467-937e-dd429b77c0de}, !- Handle
  ,                                       !- Active Institution
  ,                                       !- Active Year
  ,                                       !- Climate Zone Institution Name 1
  ,                                       !- Climate Zone Document Name 1
  ,                                       !- Climate Zone Document Year 1
  ,                                       !- Climate Zone Value 1
  Building America,                       !- Climate Zone Institution Name 2
  ,                                       !- Climate Zone Document Name 2
  0,                                      !- Climate Zone Document Year 2
  Hot-Humid;                              !- Climate Zone Value 2

OS:Site:WaterMainsTemperature,
  {e0cafae4-ad74-45c4-940e-09a7c80c813b}, !- Handle
  Correlation,                            !- Calculation Method
  ,                                       !- Temperature Schedule Name
  24.5069063926942,                       !- Annual Average Outdoor Air Temperature {C}
  8.71021505376343;                       !- Maximum Difference In Monthly Average Outdoor Air Temperatures {deltaC}

OS:RunPeriodControl:DaylightSavingTime,
  {83fdbd2b-a91e-4ee0-936e-4444abc8df0d}, !- Handle
  4/7,                                    !- Start Date
  10/26;                                  !- End Date

OS:Site:GroundTemperature:Deep,
  {39e2aafa-d9d9-4f61-ab9e-3c81d26e4a8a}, !- Handle
  24.5069063926942,                       !- January Deep Ground Temperature {C}
  24.5069063926942,                       !- February Deep Ground Temperature {C}
  24.5069063926942,                       !- March Deep Ground Temperature {C}
  24.5069063926942,                       !- April Deep Ground Temperature {C}
  24.5069063926942,                       !- May Deep Ground Temperature {C}
  24.5069063926942,                       !- June Deep Ground Temperature {C}
  24.5069063926942,                       !- July Deep Ground Temperature {C}
  24.5069063926942,                       !- August Deep Ground Temperature {C}
  24.5069063926942,                       !- September Deep Ground Temperature {C}
  24.5069063926942,                       !- October Deep Ground Temperature {C}
  24.5069063926942,                       !- November Deep Ground Temperature {C}
  24.5069063926942;                       !- December Deep Ground Temperature {C}

OS:ThermalZone,
  {9e2f0ed6-cf34-4c55-a998-ea95f074b25d}, !- Handle
  living zone,                            !- Name
  ,                                       !- Multiplier
  ,                                       !- Ceiling Height {m}
  ,                                       !- Volume {m3}
  ,                                       !- Floor Area {m2}
  ,                                       !- Zone Inside Convection Algorithm
  ,                                       !- Zone Outside Convection Algorithm
  ,                                       !- Zone Conditioning Equipment List Name
  {6f811a61-1b01-495b-82d4-28f55a9923ec}, !- Zone Air Inlet Port List
  {3605a8ce-8b84-478e-a9be-1b6057db6330}, !- Zone Air Exhaust Port List
  {fb3162ff-a9ae-48e8-bdb8-aed24e7a3a52}, !- Zone Air Node Name
  {5f17602a-5733-4641-9e0a-5a26939cd3c5}, !- Zone Return Air Port List
  ,                                       !- Primary Daylighting Control Name
  ,                                       !- Fraction of Zone Controlled by Primary Daylighting Control
  ,                                       !- Secondary Daylighting Control Name
  ,                                       !- Fraction of Zone Controlled by Secondary Daylighting Control
  ,                                       !- Illuminance Map Name
  ,                                       !- Group Rendering Name
  ,                                       !- Thermostat Name
  No,                                     !- Use Ideal Air Loads
  {889b85a8-2e49-42dc-aee4-5fc6b220f211}; !- Humidistat Name

OS:Node,
  {c626b4c8-c60c-478f-9552-515d144f9988}, !- Handle
  Node 1,                                 !- Name
  {fb3162ff-a9ae-48e8-bdb8-aed24e7a3a52}, !- Inlet Port
  ;                                       !- Outlet Port

OS:Connection,
  {fb3162ff-a9ae-48e8-bdb8-aed24e7a3a52}, !- Handle
  {2957f999-2072-443f-8efe-73a40822b317}, !- Name
  {9e2f0ed6-cf34-4c55-a998-ea95f074b25d}, !- Source Object
  11,                                     !- Outlet Port
  {c626b4c8-c60c-478f-9552-515d144f9988}, !- Target Object
  2;                                      !- Inlet Port

OS:PortList,
  {6f811a61-1b01-495b-82d4-28f55a9923ec}, !- Handle
  {a9ac2b9b-0c0e-4afc-8b83-2d3678f7a19f}, !- Name
  {9e2f0ed6-cf34-4c55-a998-ea95f074b25d}, !- HVAC Component
  {246a7b55-1c7c-4959-8c52-945d4ada0d3b}; !- Port 1

OS:PortList,
  {3605a8ce-8b84-478e-a9be-1b6057db6330}, !- Handle
  {0e0bc348-48b4-4e8a-902b-e57fda8a7a9b}, !- Name
  {9e2f0ed6-cf34-4c55-a998-ea95f074b25d}, !- HVAC Component
  {54008766-0efc-4a8f-b7c8-7db66850cfea}; !- Port 1

OS:PortList,
  {5f17602a-5733-4641-9e0a-5a26939cd3c5}, !- Handle
  {bcc67dbd-1a34-4fa2-a5d7-62cbeba1bff3}, !- Name
  {9e2f0ed6-cf34-4c55-a998-ea95f074b25d}; !- HVAC Component

OS:Sizing:Zone,
  {a1bcd372-eb3f-4ac5-898e-57a6e7abc3c2}, !- Handle
  {9e2f0ed6-cf34-4c55-a998-ea95f074b25d}, !- Zone or ZoneList Name
  SupplyAirTemperature,                   !- Zone Cooling Design Supply Air Temperature Input Method
  14,                                     !- Zone Cooling Design Supply Air Temperature {C}
  11.11,                                  !- Zone Cooling Design Supply Air Temperature Difference {deltaC}
  SupplyAirTemperature,                   !- Zone Heating Design Supply Air Temperature Input Method
  40,                                     !- Zone Heating Design Supply Air Temperature {C}
  11.11,                                  !- Zone Heating Design Supply Air Temperature Difference {deltaC}
  0.0085,                                 !- Zone Cooling Design Supply Air Humidity Ratio {kg-H2O/kg-air}
  0.008,                                  !- Zone Heating Design Supply Air Humidity Ratio {kg-H2O/kg-air}
  ,                                       !- Zone Heating Sizing Factor
  ,                                       !- Zone Cooling Sizing Factor
  DesignDay,                              !- Cooling Design Air Flow Method
  ,                                       !- Cooling Design Air Flow Rate {m3/s}
  ,                                       !- Cooling Minimum Air Flow per Zone Floor Area {m3/s-m2}
  ,                                       !- Cooling Minimum Air Flow {m3/s}
  ,                                       !- Cooling Minimum Air Flow Fraction
  DesignDay,                              !- Heating Design Air Flow Method
  ,                                       !- Heating Design Air Flow Rate {m3/s}
  ,                                       !- Heating Maximum Air Flow per Zone Floor Area {m3/s-m2}
  ,                                       !- Heating Maximum Air Flow {m3/s}
  ,                                       !- Heating Maximum Air Flow Fraction
  ,                                       !- Design Zone Air Distribution Effectiveness in Cooling Mode
  ,                                       !- Design Zone Air Distribution Effectiveness in Heating Mode
  No,                                     !- Account for Dedicated Outdoor Air System
  NeutralSupplyAir,                       !- Dedicated Outdoor Air System Control Strategy
  autosize,                               !- Dedicated Outdoor Air Low Setpoint Temperature for Design {C}
  autosize;                               !- Dedicated Outdoor Air High Setpoint Temperature for Design {C}

OS:ZoneHVAC:EquipmentList,
  {dd6490b3-70c8-48ee-b4e8-85e704583190}, !- Handle
  Zone HVAC Equipment List 1,             !- Name
  {9e2f0ed6-cf34-4c55-a998-ea95f074b25d}, !- Thermal Zone
  SequentialLoad,                         !- Load Distribution Scheme
  {6d84ab31-f965-47f0-bdf0-462561312c80}, !- Zone Equipment 1
  1,                                      !- Zone Equipment Cooling Sequence 1
  1,                                      !- Zone Equipment Heating or No-Load Sequence 1
  ,                                       !- Zone Equipment Sequential Cooling Fraction 1
  ;                                       !- Zone Equipment Sequential Heating Fraction 1

OS:ThermalZone,
  {dec24e00-007b-42bb-b33a-0103b975c48b}, !- Handle
  garage zone,                            !- Name
  ,                                       !- Multiplier
  ,                                       !- Ceiling Height {m}
  ,                                       !- Volume {m3}
  ,                                       !- Floor Area {m2}
  ,                                       !- Zone Inside Convection Algorithm
  ,                                       !- Zone Outside Convection Algorithm
  ,                                       !- Zone Conditioning Equipment List Name
  {27aea502-4336-4c69-ab8b-2b5a09080bf6}, !- Zone Air Inlet Port List
  {f13d7317-dbbd-4a60-a8ca-e4736bb8654b}, !- Zone Air Exhaust Port List
  {001dc990-ca29-42e8-8f95-5da99b8f084f}, !- Zone Air Node Name
  {c33d2f61-1c69-4821-9fca-b5985c76da83}, !- Zone Return Air Port List
  ,                                       !- Primary Daylighting Control Name
  ,                                       !- Fraction of Zone Controlled by Primary Daylighting Control
  ,                                       !- Secondary Daylighting Control Name
  ,                                       !- Fraction of Zone Controlled by Secondary Daylighting Control
  ,                                       !- Illuminance Map Name
  ,                                       !- Group Rendering Name
  ,                                       !- Thermostat Name
  No;                                     !- Use Ideal Air Loads

OS:Node,
  {ac16973c-6e3e-49dd-8d48-839f9b9d8ac2}, !- Handle
  Node 2,                                 !- Name
  {001dc990-ca29-42e8-8f95-5da99b8f084f}, !- Inlet Port
  ;                                       !- Outlet Port

OS:Connection,
  {001dc990-ca29-42e8-8f95-5da99b8f084f}, !- Handle
  {00f1cc94-f3d9-4624-9b2e-8645fc9e4917}, !- Name
  {dec24e00-007b-42bb-b33a-0103b975c48b}, !- Source Object
  11,                                     !- Outlet Port
  {ac16973c-6e3e-49dd-8d48-839f9b9d8ac2}, !- Target Object
  2;                                      !- Inlet Port

OS:PortList,
  {27aea502-4336-4c69-ab8b-2b5a09080bf6}, !- Handle
  {cb564237-4900-4a49-8693-cf93e68f4e58}, !- Name
  {dec24e00-007b-42bb-b33a-0103b975c48b}; !- HVAC Component

OS:PortList,
  {f13d7317-dbbd-4a60-a8ca-e4736bb8654b}, !- Handle
  {77ef0e87-970a-414c-aacb-dc0c0309db53}, !- Name
  {dec24e00-007b-42bb-b33a-0103b975c48b}; !- HVAC Component

OS:PortList,
  {c33d2f61-1c69-4821-9fca-b5985c76da83}, !- Handle
  {5b150f61-f3bf-4556-965d-4f77ef75cf93}, !- Name
  {dec24e00-007b-42bb-b33a-0103b975c48b}; !- HVAC Component

OS:Sizing:Zone,
  {f42f89c8-0605-48e1-ba66-4a8a8f952086}, !- Handle
  {dec24e00-007b-42bb-b33a-0103b975c48b}, !- Zone or ZoneList Name
  SupplyAirTemperature,                   !- Zone Cooling Design Supply Air Temperature Input Method
  14,                                     !- Zone Cooling Design Supply Air Temperature {C}
  11.11,                                  !- Zone Cooling Design Supply Air Temperature Difference {deltaC}
  SupplyAirTemperature,                   !- Zone Heating Design Supply Air Temperature Input Method
  40,                                     !- Zone Heating Design Supply Air Temperature {C}
  11.11,                                  !- Zone Heating Design Supply Air Temperature Difference {deltaC}
  0.0085,                                 !- Zone Cooling Design Supply Air Humidity Ratio {kg-H2O/kg-air}
  0.008,                                  !- Zone Heating Design Supply Air Humidity Ratio {kg-H2O/kg-air}
  ,                                       !- Zone Heating Sizing Factor
  ,                                       !- Zone Cooling Sizing Factor
  DesignDay,                              !- Cooling Design Air Flow Method
  ,                                       !- Cooling Design Air Flow Rate {m3/s}
  ,                                       !- Cooling Minimum Air Flow per Zone Floor Area {m3/s-m2}
  ,                                       !- Cooling Minimum Air Flow {m3/s}
  ,                                       !- Cooling Minimum Air Flow Fraction
  DesignDay,                              !- Heating Design Air Flow Method
  ,                                       !- Heating Design Air Flow Rate {m3/s}
  ,                                       !- Heating Maximum Air Flow per Zone Floor Area {m3/s-m2}
  ,                                       !- Heating Maximum Air Flow {m3/s}
  ,                                       !- Heating Maximum Air Flow Fraction
  ,                                       !- Design Zone Air Distribution Effectiveness in Cooling Mode
  ,                                       !- Design Zone Air Distribution Effectiveness in Heating Mode
  No,                                     !- Account for Dedicated Outdoor Air System
  NeutralSupplyAir,                       !- Dedicated Outdoor Air System Control Strategy
  autosize,                               !- Dedicated Outdoor Air Low Setpoint Temperature for Design {C}
  autosize;                               !- Dedicated Outdoor Air High Setpoint Temperature for Design {C}

OS:ZoneHVAC:EquipmentList,
  {d94c499c-fe9b-400e-a0d4-144b65e94ada}, !- Handle
  Zone HVAC Equipment List 2,             !- Name
  {dec24e00-007b-42bb-b33a-0103b975c48b}; !- Thermal Zone

OS:Space,
  {372ce88b-a390-4e36-b8eb-128253ee6e3c}, !- Handle
  garage space,                           !- Name
  {7aca0a6f-67f8-4b7c-a0b3-a38b7bf5e27f}, !- Space Type Name
  ,                                       !- Default Construction Set Name
  ,                                       !- Default Schedule Set Name
  -0,                                     !- Direction of Relative North {deg}
  0,                                      !- X Origin {m}
  0,                                      !- Y Origin {m}
  0,                                      !- Z Origin {m}
  ,                                       !- Building Story Name
  {dec24e00-007b-42bb-b33a-0103b975c48b}; !- Thermal Zone Name

OS:Surface,
  {75f80707-b834-4fef-9bc2-86f5fa2b2f48}, !- Handle
  Surface 1,                              !- Name
  Floor,                                  !- Surface Type
  {daa414cf-449e-4887-ba35-d0423d63e553}, !- Construction Name
  {372ce88b-a390-4e36-b8eb-128253ee6e3c}, !- Space Name
  Foundation,                             !- Outside Boundary Condition
  {a377b248-81f0-419e-aba9-d7f344371289}, !- Outside Boundary Condition Object
  NoSun,                                  !- Sun Exposure
  NoWind,                                 !- Wind Exposure
  ,                                       !- View Factor to Ground
  ,                                       !- Number of Vertices
  8.91701625975123, -3.048, 0,            !- X,Y,Z Vertex 1 {m}
  8.91701625975123, 3.048, 0,             !- X,Y,Z Vertex 2 {m}
  12.5746162597512, 3.048, 0,             !- X,Y,Z Vertex 3 {m}
  12.5746162597512, -3.048, 0;            !- X,Y,Z Vertex 4 {m}

OS:Surface,
  {1cc0a5d7-04b3-41c4-bbc5-5791368f0d8e}, !- Handle
  Surface 2,                              !- Name
  Wall,                                   !- Surface Type
  {d95287a8-0832-4678-ae9e-9c5bcd014c71}, !- Construction Name
  {372ce88b-a390-4e36-b8eb-128253ee6e3c}, !- Space Name
  Surface,                                !- Outside Boundary Condition
  {cc911e0e-6069-4c3f-8e12-38a664244d98}, !- Outside Boundary Condition Object
  NoSun,                                  !- Sun Exposure
  NoWind,                                 !- Wind Exposure
  ,                                       !- View Factor to Ground
  ,                                       !- Number of Vertices
  8.91701625975123, 3.048, 2.4384,        !- X,Y,Z Vertex 1 {m}
  8.91701625975123, 3.048, 0,             !- X,Y,Z Vertex 2 {m}
  8.91701625975123, 0, 0,                 !- X,Y,Z Vertex 3 {m}
  8.91701625975123, 0, 2.4384;            !- X,Y,Z Vertex 4 {m}

OS:Surface,
  {01df5c61-1419-49d1-a5c7-f7d26e77cf1c}, !- Handle
  Surface 3,                              !- Name
  Wall,                                   !- Surface Type
  {d95287a8-0832-4678-ae9e-9c5bcd014c71}, !- Construction Name
  {372ce88b-a390-4e36-b8eb-128253ee6e3c}, !- Space Name
  Surface,                                !- Outside Boundary Condition
  {1dc00ba3-0b97-4bb9-aca1-ed90ae7f759e}, !- Outside Boundary Condition Object
  NoSun,                                  !- Sun Exposure
  NoWind,                                 !- Wind Exposure
  ,                                       !- View Factor to Ground
  ,                                       !- Number of Vertices
  12.5746162597512, 3.048, 2.4384,        !- X,Y,Z Vertex 1 {m}
  12.5746162597512, 3.048, 0,             !- X,Y,Z Vertex 2 {m}
  8.91701625975123, 3.048, 0,             !- X,Y,Z Vertex 3 {m}
  8.91701625975123, 3.048, 2.4384;        !- X,Y,Z Vertex 4 {m}

OS:Surface,
  {21b15c13-f0ea-4fb2-b960-d2f4cc0c7ccb}, !- Handle
  Surface 4,                              !- Name
  Wall,                                   !- Surface Type
  {1d61a0e6-bf8a-4094-97d4-7e125b72ffc9}, !- Construction Name
  {372ce88b-a390-4e36-b8eb-128253ee6e3c}, !- Space Name
  Outdoors,                               !- Outside Boundary Condition
  ,                                       !- Outside Boundary Condition Object
  SunExposed,                             !- Sun Exposure
  WindExposed,                            !- Wind Exposure
  ,                                       !- View Factor to Ground
  ,                                       !- Number of Vertices
  12.5746162597512, -3.048, 2.4384,       !- X,Y,Z Vertex 1 {m}
  12.5746162597512, -3.048, 0,            !- X,Y,Z Vertex 2 {m}
  12.5746162597512, 3.048, 0,             !- X,Y,Z Vertex 3 {m}
  12.5746162597512, 3.048, 2.4384;        !- X,Y,Z Vertex 4 {m}

OS:Surface,
  {aa69af46-c7ce-4c3c-842a-f086570cafef}, !- Handle
  Surface 5,                              !- Name
  Wall,                                   !- Surface Type
  {1d61a0e6-bf8a-4094-97d4-7e125b72ffc9}, !- Construction Name
  {372ce88b-a390-4e36-b8eb-128253ee6e3c}, !- Space Name
  Outdoors,                               !- Outside Boundary Condition
  ,                                       !- Outside Boundary Condition Object