!- NOTE: Auto-generated from /test/osw_files/SFD_1story_UB_UA_GRG_ACV_FuelFurnace_HPWH.osw

OS:Version,
  {b11878c6-7134-47a3-b7db-0f2569b33db5}, !- Handle
  2.8.1;                                  !- Version Identifier

OS:SimulationControl,
  {e868f890-b170-4473-9192-76f85ee627f9}, !- Handle
  ,                                       !- Do Zone Sizing Calculation
  ,                                       !- Do System Sizing Calculation
  ,                                       !- Do Plant Sizing Calculation
  No;                                     !- Run Simulation for Sizing Periods

OS:Timestep,
  {f314febc-6a4b-46c1-ba1c-5025ccf7610a}, !- Handle
  6;                                      !- Number of Timesteps per Hour

OS:ShadowCalculation,
  {86693ac6-f38d-43b9-9889-5a441328e3b6}, !- Handle
  20,                                     !- Calculation Frequency
  200;                                    !- Maximum Figures in Shadow Overlap Calculations

OS:SurfaceConvectionAlgorithm:Outside,
  {1411dea4-74d4-4ad5-8755-7bca965c0b25}, !- Handle
  DOE-2;                                  !- Algorithm

OS:SurfaceConvectionAlgorithm:Inside,
  {a5bb146c-698d-4713-80c1-4a5fe5b9ff5c}, !- Handle
  TARP;                                   !- Algorithm

OS:ZoneCapacitanceMultiplier:ResearchSpecial,
  {4b8f4f89-9c1e-451d-8910-e57d833823f9}, !- Handle
  ,                                       !- Temperature Capacity Multiplier
  15,                                     !- Humidity Capacity Multiplier
  ;                                       !- Carbon Dioxide Capacity Multiplier

OS:RunPeriod,
  {51016793-459a-4c0b-a084-584a5907e795}, !- Handle
  Run Period 1,                           !- Name
  1,                                      !- Begin Month
  1,                                      !- Begin Day of Month
  12,                                     !- End Month
  31,                                     !- End Day of Month
  ,                                       !- Use Weather File Holidays and Special Days
  ,                                       !- Use Weather File Daylight Saving Period
  ,                                       !- Apply Weekend Holiday Rule
  ,                                       !- Use Weather File Rain Indicators
  ,                                       !- Use Weather File Snow Indicators
  ;                                       !- Number of Times Runperiod to be Repeated

OS:YearDescription,
  {8000f7a6-818a-4786-b01b-bcb83b862dab}, !- Handle
  2007,                                   !- Calendar Year
  ,                                       !- Day of Week for Start Day
  ;                                       !- Is Leap Year

OS:WeatherFile,
  {519e6c91-17b5-494f-91c1-720e643346b7}, !- Handle
  Denver Intl Ap,                         !- City
  CO,                                     !- State Province Region
  USA,                                    !- Country
  TMY3,                                   !- Data Source
  725650,                                 !- WMO Number
  39.83,                                  !- Latitude {deg}
  -104.65,                                !- Longitude {deg}
  -7,                                     !- Time Zone {hr}
  1650,                                   !- Elevation {m}
  file:../weather/USA_CO_Denver.Intl.AP.725650_TMY3.epw, !- Url
  E23378AA;                               !- Checksum

OS:AdditionalProperties,
  {ca408b03-52c5-4842-bf26-ee313f63448c}, !- Handle
  {519e6c91-17b5-494f-91c1-720e643346b7}, !- Object Name
  EPWHeaderCity,                          !- Feature Name 1
  String,                                 !- Feature Data Type 1
  Denver Intl Ap,                         !- Feature Value 1
  EPWHeaderState,                         !- Feature Name 2
  String,                                 !- Feature Data Type 2
  CO,                                     !- Feature Value 2
  EPWHeaderCountry,                       !- Feature Name 3
  String,                                 !- Feature Data Type 3
  USA,                                    !- Feature Value 3
  EPWHeaderDataSource,                    !- Feature Name 4
  String,                                 !- Feature Data Type 4
  TMY3,                                   !- Feature Value 4
  EPWHeaderStation,                       !- Feature Name 5
  String,                                 !- Feature Data Type 5
  725650,                                 !- Feature Value 5
  EPWHeaderLatitude,                      !- Feature Name 6
  Double,                                 !- Feature Data Type 6
  39.829999999999998,                     !- Feature Value 6
  EPWHeaderLongitude,                     !- Feature Name 7
  Double,                                 !- Feature Data Type 7
  -104.65000000000001,                    !- Feature Value 7
  EPWHeaderTimezone,                      !- Feature Name 8
  Double,                                 !- Feature Data Type 8
  -7,                                     !- Feature Value 8
  EPWHeaderAltitude,                      !- Feature Name 9
  Double,                                 !- Feature Data Type 9
  5413.3858267716532,                     !- Feature Value 9
  EPWHeaderLocalPressure,                 !- Feature Name 10
  Double,                                 !- Feature Data Type 10
  0.81937567683596546,                    !- Feature Value 10
  EPWHeaderRecordsPerHour,                !- Feature Name 11
  Double,                                 !- Feature Data Type 11
  0,                                      !- Feature Value 11
  EPWDataAnnualAvgDrybulb,                !- Feature Name 12
  Double,                                 !- Feature Data Type 12
  51.575616438356228,                     !- Feature Value 12
  EPWDataAnnualMinDrybulb,                !- Feature Name 13
  Double,                                 !- Feature Data Type 13
  -2.9200000000000017,                    !- Feature Value 13
  EPWDataAnnualMaxDrybulb,                !- Feature Name 14
  Double,                                 !- Feature Data Type 14
  104,                                    !- Feature Value 14
  EPWDataCDD50F,                          !- Feature Name 15
  Double,                                 !- Feature Data Type 15
  3072.2925000000005,                     !- Feature Value 15
  EPWDataCDD65F,                          !- Feature Name 16
  Double,                                 !- Feature Data Type 16
  883.62000000000035,                     !- Feature Value 16
  EPWDataHDD50F,                          !- Feature Name 17
  Double,                                 !- Feature Data Type 17
  2497.1925000000001,                     !- Feature Value 17
  EPWDataHDD65F,                          !- Feature Name 18
  Double,                                 !- Feature Data Type 18
  5783.5200000000013,                     !- Feature Value 18
  EPWDataAnnualAvgWindspeed,              !- Feature Name 19
  Double,                                 !- Feature Data Type 19
  3.9165296803649667,                     !- Feature Value 19
  EPWDataMonthlyAvgDrybulbs,              !- Feature Name 20
  String,                                 !- Feature Data Type 20
  33.4191935483871&#4431.90142857142857&#4443.02620967741937&#4442.48624999999999&#4459.877741935483854&#4473.57574999999997&#4472.07975806451608&#4472.70008064516134&#4466.49200000000006&#4450.079112903225806&#4437.218250000000005&#4434.582177419354835, !- Feature Value 20
  EPWDataGroundMonthlyTemps,              !- Feature Name 21
  String,                                 !- Feature Data Type 21
  44.08306285945173&#4440.89570904991865&#4440.64045432632048&#4442.153016571250646&#4448.225111118704206&#4454.268919273837525&#4459.508577937551024&#4462.82777283423508&#4463.10975667174995&#4460.41014950381947&#4455.304105212311526&#4449.445696474514364, !- Feature Value 21
  EPWDataWSF,                             !- Feature Name 22
  Double,                                 !- Feature Data Type 22
  0.58999999999999997,                    !- Feature Value 22
  EPWDataMonthlyAvgDailyHighDrybulbs,     !- Feature Name 23
  String,                                 !- Feature Data Type 23
  47.41032258064516&#4446.58642857142857&#4455.15032258064517&#4453.708&#4472.80193548387098&#4488.67600000000002&#4486.1858064516129&#4485.87225806451613&#4482.082&#4463.18064516129033&#4448.73400000000001&#4448.87935483870968, !- Feature Value 23
  EPWDataMonthlyAvgDailyLowDrybulbs,      !- Feature Name 24
  String,                                 !- Feature Data Type 24
  19.347741935483874&#4419.856428571428573&#4430.316129032258065&#4431.112&#4447.41612903225806&#4457.901999999999994&#4459.063870967741934&#4460.956774193548384&#4452.352000000000004&#4438.41612903225806&#4427.002000000000002&#4423.02903225806451, !- Feature Value 24
  EPWDesignHeatingDrybulb,                !- Feature Name 25
  Double,                                 !- Feature Data Type 25
  12.02,                                  !- Feature Value 25
  EPWDesignHeatingWindspeed,              !- Feature Name 26
  Double,                                 !- Feature Data Type 26
  2.8062500000000004,                     !- Feature Value 26
  EPWDesignCoolingDrybulb,                !- Feature Name 27
  Double,                                 !- Feature Data Type 27
  91.939999999999998,                     !- Feature Value 27
  EPWDesignCoolingWetbulb,                !- Feature Name 28
  Double,                                 !- Feature Data Type 28
  59.95131430195849,                      !- Feature Value 28
  EPWDesignCoolingHumidityRatio,          !- Feature Name 29
  Double,                                 !- Feature Data Type 29
  0.0059161086834698092,                  !- Feature Value 29
  EPWDesignCoolingWindspeed,              !- Feature Name 30
  Double,                                 !- Feature Data Type 30
  3.7999999999999989,                     !- Feature Value 30
  EPWDesignDailyTemperatureRange,         !- Feature Name 31
  Double,                                 !- Feature Data Type 31
  24.915483870967748,                     !- Feature Value 31
  EPWDesignDehumidDrybulb,                !- Feature Name 32
  Double,                                 !- Feature Data Type 32
  67.996785714285721,                     !- Feature Value 32
  EPWDesignDehumidHumidityRatio,          !- Feature Name 33
  Double,                                 !- Feature Data Type 33
  0.012133744170488724,                   !- Feature Value 33
  EPWDesignCoolingDirectNormal,           !- Feature Name 34
  Double,                                 !- Feature Data Type 34
  985,                                    !- Feature Value 34
  EPWDesignCoolingDiffuseHorizontal,      !- Feature Name 35
  Double,                                 !- Feature Data Type 35
  84;                                     !- Feature Value 35

OS:Site,
  {41be2d40-ee30-4432-9a8b-5f780f3e093d}, !- Handle
  Denver Intl Ap_CO_USA,                  !- Name
  39.83,                                  !- Latitude {deg}
  -104.65,                                !- Longitude {deg}
  -7,                                     !- Time Zone {hr}
  1650,                                   !- Elevation {m}
  Suburbs;                                !- Terrain

OS:ClimateZones,
  {82a702b3-6893-4b54-a2bc-473931fb1eae}, !- Handle
  ,                                       !- Active Institution
  ,                                       !- Active Year
  ,                                       !- Climate Zone Institution Name 1
  ,                                       !- Climate Zone Document Name 1
  ,                                       !- Climate Zone Document Year 1
  ,                                       !- Climate Zone Value 1
  Building America,                       !- Climate Zone Institution Name 2
  ,                                       !- Climate Zone Document Name 2
  0,                                      !- Climate Zone Document Year 2
  Cold;                                   !- Climate Zone Value 2

OS:Site:WaterMainsTemperature,
  {48916e86-5c62-4ebf-82f6-d1ddc4d4f1ee}, !- Handle
  Correlation,                            !- Calculation Method
  ,                                       !- Temperature Schedule Name
  10.8753424657535,                       !- Annual Average Outdoor Air Temperature {C}
  23.1524007936508;                       !- Maximum Difference In Monthly Average Outdoor Air Temperatures {deltaC}

OS:RunPeriodControl:DaylightSavingTime,
  {ba059b18-f614-4d5b-bb0d-3e35bca7433a}, !- Handle
  4/7,                                    !- Start Date
  10/26;                                  !- End Date

OS:Site:GroundTemperature:Deep,
  {9fccbc44-21ad-4862-b880-c3ed02977cd9}, !- Handle
  10.8753424657535,                       !- January Deep Ground Temperature {C}
  10.8753424657535,                       !- February Deep Ground Temperature {C}
  10.8753424657535,                       !- March Deep Ground Temperature {C}
  10.8753424657535,                       !- April Deep Ground Temperature {C}
  10.8753424657535,                       !- May Deep Ground Temperature {C}
  10.8753424657535,                       !- June Deep Ground Temperature {C}
  10.8753424657535,                       !- July Deep Ground Temperature {C}
  10.8753424657535,                       !- August Deep Ground Temperature {C}
  10.8753424657535,                       !- September Deep Ground Temperature {C}
  10.8753424657535,                       !- October Deep Ground Temperature {C}
  10.8753424657535,                       !- November Deep Ground Temperature {C}
  10.8753424657535;                       !- December Deep Ground Temperature {C}

OS:ThermalZone,
  {4ab02a8b-5761-4f3f-8bc1-6074c259515b}, !- Handle
  living zone,                            !- Name
  ,                                       !- Multiplier
  ,                                       !- Ceiling Height {m}
  ,                                       !- Volume {m3}
  ,                                       !- Floor Area {m2}
  ,                                       !- Zone Inside Convection Algorithm
  ,                                       !- Zone Outside Convection Algorithm
  ,                                       !- Zone Conditioning Equipment List Name
  {acda0ca6-0987-46dc-b5e9-118ddb994a2a}, !- Zone Air Inlet Port List
  {6fbe116d-6837-4478-b9d9-c7b1465ab7cc}, !- Zone Air Exhaust Port List
  {d29bf142-0841-4d23-baa4-46b139bb7999}, !- Zone Air Node Name
  {a417e449-36ba-4a35-bb8f-359020d56a39}, !- Zone Return Air Port List
  ,                                       !- Primary Daylighting Control Name
  ,                                       !- Fraction of Zone Controlled by Primary Daylighting Control
  ,                                       !- Secondary Daylighting Control Name
  ,                                       !- Fraction of Zone Controlled by Secondary Daylighting Control
  ,                                       !- Illuminance Map Name
  ,                                       !- Group Rendering Name
  {f284dfd3-870e-440f-adc6-a5b0fc5f4163}, !- Thermostat Name
  No;                                     !- Use Ideal Air Loads

OS:Node,
  {a24ce9bb-c00c-4055-a2b2-4bf941167d39}, !- Handle
  Node 1,                                 !- Name
  {d29bf142-0841-4d23-baa4-46b139bb7999}, !- Inlet Port
  ;                                       !- Outlet Port

OS:Connection,
  {d29bf142-0841-4d23-baa4-46b139bb7999}, !- Handle
  {c6ecf659-d9b4-4cb5-aa37-369bc5dbc932}, !- Name
  {4ab02a8b-5761-4f3f-8bc1-6074c259515b}, !- Source Object
  11,                                     !- Outlet Port
  {a24ce9bb-c00c-4055-a2b2-4bf941167d39}, !- Target Object
  2;                                      !- Inlet Port

OS:PortList,
  {acda0ca6-0987-46dc-b5e9-118ddb994a2a}, !- Handle
  {b67c7075-c4f0-46db-be54-733f864b1087}, !- Name
  {4ab02a8b-5761-4f3f-8bc1-6074c259515b}, !- HVAC Component
  {6206cb40-c169-4c80-a828-5e4127b67b6a}, !- Port 1
  {8a5c26c9-9487-4321-895b-af92b0a743e1}; !- Port 2

OS:PortList,
  {6fbe116d-6837-4478-b9d9-c7b1465ab7cc}, !- Handle
  {0811697c-55f7-4f90-8d96-a69c0335977d}, !- Name
  {4ab02a8b-5761-4f3f-8bc1-6074c259515b}; !- HVAC Component

OS:PortList,
  {a417e449-36ba-4a35-bb8f-359020d56a39}, !- Handle
  {bf8baf94-e899-4a8a-bbef-ef71d7023414}, !- Name
  {4ab02a8b-5761-4f3f-8bc1-6074c259515b}, !- HVAC Component
  {2f3926d4-8d85-4c4a-9706-3a53b5355bae}, !- Port 1
  {e4e78814-abdf-49ee-917c-88a920be0d49}; !- Port 2

OS:Sizing:Zone,
  {361c84fa-b1e3-454d-8911-c071e323c7c5}, !- Handle
  {4ab02a8b-5761-4f3f-8bc1-6074c259515b}, !- Zone or ZoneList Name
  SupplyAirTemperature,                   !- Zone Cooling Design Supply Air Temperature Input Method
  14,                                     !- Zone Cooling Design Supply Air Temperature {C}
  11.11,                                  !- Zone Cooling Design Supply Air Temperature Difference {deltaC}
  SupplyAirTemperature,                   !- Zone Heating Design Supply Air Temperature Input Method
  40,                                     !- Zone Heating Design Supply Air Temperature {C}
  11.11,                                  !- Zone Heating Design Supply Air Temperature Difference {deltaC}
  0.0085,                                 !- Zone Cooling Design Supply Air Humidity Ratio {kg-H2O/kg-air}
  0.008,                                  !- Zone Heating Design Supply Air Humidity Ratio {kg-H2O/kg-air}
  ,                                       !- Zone Heating Sizing Factor
  ,                                       !- Zone Cooling Sizing Factor
  DesignDay,                              !- Cooling Design Air Flow Method
  ,                                       !- Cooling Design Air Flow Rate {m3/s}
  ,                                       !- Cooling Minimum Air Flow per Zone Floor Area {m3/s-m2}
  ,                                       !- Cooling Minimum Air Flow {m3/s}
  ,                                       !- Cooling Minimum Air Flow Fraction
  DesignDay,                              !- Heating Design Air Flow Method
  ,                                       !- Heating Design Air Flow Rate {m3/s}
  ,                                       !- Heating Maximum Air Flow per Zone Floor Area {m3/s-m2}
  ,                                       !- Heating Maximum Air Flow {m3/s}
  ,                                       !- Heating Maximum Air Flow Fraction
  ,                                       !- Design Zone Air Distribution Effectiveness in Cooling Mode
  ,                                       !- Design Zone Air Distribution Effectiveness in Heating Mode
  No,                                     !- Account for Dedicated Outdoor Air System
  NeutralSupplyAir,                       !- Dedicated Outdoor Air System Control Strategy
  autosize,                               !- Dedicated Outdoor Air Low Setpoint Temperature for Design {C}
  autosize;                               !- Dedicated Outdoor Air High Setpoint Temperature for Design {C}

OS:ZoneHVAC:EquipmentList,
  {61176ad8-19f0-4319-9137-de1a216b4000}, !- Handle
  Zone HVAC Equipment List 1,             !- Name
  {4ab02a8b-5761-4f3f-8bc1-6074c259515b}, !- Thermal Zone
  SequentialLoad,                         !- Load Distribution Scheme
  {04c3a242-2afc-4583-b99f-94a25b5d3926}, !- Zone Equipment 1
  1,                                      !- Zone Equipment Cooling Sequence 1
  1,                                      !- Zone Equipment Heating or No-Load Sequence 1
  ,                                       !- Zone Equipment Sequential Cooling Fraction 1
  ,                                       !- Zone Equipment Sequential Heating Fraction 1
  {693c518a-621b-41f9-9c11-91a43c63dbb5}, !- Zone Equipment 2
  2,                                      !- Zone Equipment Cooling Sequence 2
  2,                                      !- Zone Equipment Heating or No-Load Sequence 2
  ,                                       !- Zone Equipment Sequential Cooling Fraction 2
  ;                                       !- Zone Equipment Sequential Heating Fraction 2

OS:ThermalZone,
  {aa09b444-0170-48f3-a488-faceac1d8127}, !- Handle
  garage zone,                            !- Name
  ,                                       !- Multiplier
  ,                                       !- Ceiling Height {m}
  ,                                       !- Volume {m3}
  ,                                       !- Floor Area {m2}
  ,                                       !- Zone Inside Convection Algorithm
  ,                                       !- Zone Outside Convection Algorithm
  ,                                       !- Zone Conditioning Equipment List Name
  {99a2fe30-7399-45e0-99a5-45aeec0f97b6}, !- Zone Air Inlet Port List
  {10674a4f-e136-4924-a748-2767b7ec2893}, !- Zone Air Exhaust Port List
  {e31a1f4b-cf9c-41bb-99ba-da4145741541}, !- Zone Air Node Name
  {adcfa2fa-2f29-467b-a8df-bac28d2993f1}, !- Zone Return Air Port List
  ,                                       !- Primary Daylighting Control Name
  ,                                       !- Fraction of Zone Controlled by Primary Daylighting Control
  ,                                       !- Secondary Daylighting Control Name
  ,                                       !- Fraction of Zone Controlled by Secondary Daylighting Control
  ,                                       !- Illuminance Map Name
  ,                                       !- Group Rendering Name
  ,                                       !- Thermostat Name
  No;                                     !- Use Ideal Air Loads

OS:Node,
  {2e8a0ffc-0631-488a-b903-b66dbeb0f421}, !- Handle
  Node 2,                                 !- Name
  {e31a1f4b-cf9c-41bb-99ba-da4145741541}, !- Inlet Port
  ;                                       !- Outlet Port

OS:Connection,
  {e31a1f4b-cf9c-41bb-99ba-da4145741541}, !- Handle
  {5277a27c-0a1f-431d-8d9a-9a5bbac6becb}, !- Name
  {aa09b444-0170-48f3-a488-faceac1d8127}, !- Source Object
  11,                                     !- Outlet Port
  {2e8a0ffc-0631-488a-b903-b66dbeb0f421}, !- Target Object
  2;                                      !- Inlet Port

OS:PortList,
  {99a2fe30-7399-45e0-99a5-45aeec0f97b6}, !- Handle
  {a6cb769b-70ab-4ea3-a7f6-609ccec34e60}, !- Name
  {aa09b444-0170-48f3-a488-faceac1d8127}; !- HVAC Component

OS:PortList,
  {10674a4f-e136-4924-a748-2767b7ec2893}, !- Handle
  {35c3f934-0563-445d-b5d4-6bcfab748f24}, !- Name
  {aa09b444-0170-48f3-a488-faceac1d8127}; !- HVAC Component

OS:PortList,
  {adcfa2fa-2f29-467b-a8df-bac28d2993f1}, !- Handle
  {bce55a9b-e008-4df4-bcde-a702ec20903d}, !- Name
  {aa09b444-0170-48f3-a488-faceac1d8127}; !- HVAC Component

OS:Sizing:Zone,
  {0164f470-bd80-408d-b6cf-ebc175a00df3}, !- Handle
  {aa09b444-0170-48f3-a488-faceac1d8127}, !- Zone or ZoneList Name
  SupplyAirTemperature,                   !- Zone Cooling Design Supply Air Temperature Input Method
  14,                                     !- Zone Cooling Design Supply Air Temperature {C}
  11.11,                                  !- Zone Cooling Design Supply Air Temperature Difference {deltaC}
  SupplyAirTemperature,                   !- Zone Heating Design Supply Air Temperature Input Method
  40,                                     !- Zone Heating Design Supply Air Temperature {C}
  11.11,                                  !- Zone Heating Design Supply Air Temperature Difference {deltaC}
  0.0085,                                 !- Zone Cooling Design Supply Air Humidity Ratio {kg-H2O/kg-air}
  0.008,                                  !- Zone Heating Design Supply Air Humidity Ratio {kg-H2O/kg-air}
  ,                                       !- Zone Heating Sizing Factor
  ,                                       !- Zone Cooling Sizing Factor
  DesignDay,                              !- Cooling Design Air Flow Method
  ,                                       !- Cooling Design Air Flow Rate {m3/s}
  ,                                       !- Cooling Minimum Air Flow per Zone Floor Area {m3/s-m2}
  ,                                       !- Cooling Minimum Air Flow {m3/s}
  ,                                       !- Cooling Minimum Air Flow Fraction
  DesignDay,                              !- Heating Design Air Flow Method
  ,                                       !- Heating Design Air Flow Rate {m3/s}
  ,                                       !- Heating Maximum Air Flow per Zone Floor Area {m3/s-m2}
  ,                                       !- Heating Maximum Air Flow {m3/s}
  ,                                       !- Heating Maximum Air Flow Fraction
  ,                                       !- Design Zone Air Distribution Effectiveness in Cooling Mode
  ,                                       !- Design Zone Air Distribution Effectiveness in Heating Mode
  No,                                     !- Account for Dedicated Outdoor Air System
  NeutralSupplyAir,                       !- Dedicated Outdoor Air System Control Strategy
  autosize,                               !- Dedicated Outdoor Air Low Setpoint Temperature for Design {C}
  autosize;                               !- Dedicated Outdoor Air High Setpoint Temperature for Design {C}

OS:ZoneHVAC:EquipmentList,
  {d6d49c50-c0dc-41eb-bc10-0d90c21daa0c}, !- Handle
  Zone HVAC Equipment List 2,             !- Name
  {aa09b444-0170-48f3-a488-faceac1d8127}; !- Thermal Zone

OS:Space,
  {73c47e08-49e1-465a-93b5-e7f39c9fc7ea}, !- Handle
  garage space,                           !- Name
  {58d0fb5c-651b-4da0-bb5a-784d04e4ca17}, !- Space Type Name
  ,                                       !- Default Construction Set Name
  ,                                       !- Default Schedule Set Name
  -0,                                     !- Direction of Relative North {deg}
  0,                                      !- X Origin {m}
  0,                                      !- Y Origin {m}
  0,                                      !- Z Origin {m}
  ,                                       !- Building Story Name
  {aa09b444-0170-48f3-a488-faceac1d8127}; !- Thermal Zone Name

OS:Surface,
  {d94d21e2-2c94-41f8-b0dc-cb45f48737fb}, !- Handle
  Surface 1,                              !- Name
  Floor,                                  !- Surface Type
  {09b9d648-0414-4f76-8b11-d3f7bff536b7}, !- Construction Name
  {73c47e08-49e1-465a-93b5-e7f39c9fc7ea}, !- Space Name
  Foundation,                             !- Outside Boundary Condition
  {95760257-7ad7-4e75-a745-b54a7b2ffc67}, !- Outside Boundary Condition Object
  NoSun,                                  !- Sun Exposure
  NoWind,                                 !- Wind Exposure
  ,                                       !- View Factor to Ground
  ,                                       !- Number of Vertices
  24.209855785701, -3.6576, 0,            !- X,Y,Z Vertex 1 {m}
  24.209855785701, 3.6576, 0,             !- X,Y,Z Vertex 2 {m}
  27.867455785701, 3.6576, 0,             !- X,Y,Z Vertex 3 {m}
  27.867455785701, -3.6576, 0;            !- X,Y,Z Vertex 4 {m}

OS:Surface,
  {b3c6c0bd-6f93-4f7b-88ea-b4e7155707a9}, !- Handle
  Surface 2,                              !- Name
  Wall,                                   !- Surface Type
  {5c540e6b-a89d-4dc7-80ef-da5f1535ceb2}, !- Construction Name
  {73c47e08-49e1-465a-93b5-e7f39c9fc7ea}, !- Space Name
  Surface,                                !- Outside Boundary Condition
  {d8adbc43-bf05-4989-89b5-c548448299e4}, !- Outside Boundary Condition Object
  NoSun,                                  !- Sun Exposure
  NoWind,                                 !- Wind Exposure
  ,                                       !- View Factor to Ground
  ,                                       !- Number of Vertices
  24.209855785701, 3.6576, 2.4384,        !- X,Y,Z Vertex 1 {m}
  24.209855785701, 3.6576, 0,             !- X,Y,Z Vertex 2 {m}
  24.209855785701, 0, 0,                  !- X,Y,Z Vertex 3 {m}
  24.209855785701, 0, 2.4384;             !- X,Y,Z Vertex 4 {m}

OS:Surface,
  {fb4d40bb-20ad-4a54-9057-155e393a1ede}, !- Handle
  Surface 3,                              !- Name
  Wall,                                   !- Surface Type
  {5c540e6b-a89d-4dc7-80ef-da5f1535ceb2}, !- Construction Name
  {73c47e08-49e1-465a-93b5-e7f39c9fc7ea}, !- Space Name
  Surface,                                !- Outside Boundary Condition
  {7b32854d-dc06-4c8d-807d-906fa53e709b}, !- Outside Boundary Condition Object
  NoSun,                                  !- Sun Exposure
  NoWind,                                 !- Wind Exposure
  ,                                       !- View Factor to Ground
  ,                                       !- Number of Vertices
  27.867455785701, 3.6576, 2.4384,        !- X,Y,Z Vertex 1 {m}
  27.867455785701, 3.6576, 0,             !- X,Y,Z Vertex 2 {m}
  24.209855785701, 3.6576, 0,             !- X,Y,Z Vertex 3 {m}
  24.209855785701, 3.6576, 2.4384;        !- X,Y,Z Vertex 4 {m}

OS:Surface,
  {c0821d1a-5315-4fd1-abee-3f8b804ffc33}, !- Handle
  Surface 4,                              !- Name
  Wall,                                   !- Surface Type
  {9835623a-0cca-4d17-8c85-2e741c6a6ceb}, !- Construction Name
  {73c47e08-49e1-465a-93b5-e7f39c9fc7ea}, !- Space Name
  Outdoors,                               !- Outside Boundary Condition
  ,                                       !- Outside Boundary Condition Object
  SunExposed,                             !- Sun Exposure
  WindExposed,                            !- Wind Exposure
  ,                                       !- View Factor to Ground
  ,                                       !- Number of Vertices
  27.867455785701, -3.6576, 2.4384,       !- X,Y,Z Vertex 1 {m}
  27.867455785701, -3.6576, 0,            !- X,Y,Z Vertex 2 {m}
  27.867455785701, 3.6576, 0,             !- X,Y,Z Vertex 3 {m}