!- NOTE: Auto-generated from /test/osw_files/SFD_2000sqft_2story_FB_UA_Denver_Furnace_CentralAC2.osw

OS:Version,
  {1df023c0-c95e-48e1-90b4-10269567d243}, !- Handle
  2.9.0;                                  !- Version Identifier

OS:SimulationControl,
  {6302de5a-6392-49f3-850a-0a1b7f88e805}, !- Handle
  ,                                       !- Do Zone Sizing Calculation
  ,                                       !- Do System Sizing Calculation
  ,                                       !- Do Plant Sizing Calculation
  No;                                     !- Run Simulation for Sizing Periods

OS:Timestep,
  {b3306cfa-8fa1-4ea1-96f5-1c834f466203}, !- Handle
  6;                                      !- Number of Timesteps per Hour

OS:ShadowCalculation,
  {74480fc7-aaba-41d4-8556-c2c9d0a59bdc}, !- Handle
  20,                                     !- Calculation Frequency
  200;                                    !- Maximum Figures in Shadow Overlap Calculations

OS:SurfaceConvectionAlgorithm:Outside,
  {84a99177-b39d-4921-b1d4-e2bb3d860e3d}, !- Handle
  DOE-2;                                  !- Algorithm

OS:SurfaceConvectionAlgorithm:Inside,
  {a2369599-097a-454d-b41a-a970c4b98406}, !- Handle
  TARP;                                   !- Algorithm

OS:ZoneCapacitanceMultiplier:ResearchSpecial,
  {3c1a70c5-7e6a-4b28-bc92-f12a22ce5d87}, !- Handle
  ,                                       !- Temperature Capacity Multiplier
  15,                                     !- Humidity Capacity Multiplier
  ;                                       !- Carbon Dioxide Capacity Multiplier

OS:RunPeriod,
  {f889c436-5ecd-4cb5-92af-e46d70643bb4}, !- Handle
  Run Period 1,                           !- Name
  1,                                      !- Begin Month
  1,                                      !- Begin Day of Month
  12,                                     !- End Month
  31,                                     !- End Day of Month
  ,                                       !- Use Weather File Holidays and Special Days
  ,                                       !- Use Weather File Daylight Saving Period
  ,                                       !- Apply Weekend Holiday Rule
  ,                                       !- Use Weather File Rain Indicators
  ,                                       !- Use Weather File Snow Indicators
  ;                                       !- Number of Times Runperiod to be Repeated

OS:YearDescription,
  {4fa4ca4e-3e1c-4cd8-bced-f9035cb23b03}, !- Handle
  2007,                                   !- Calendar Year
  ,                                       !- Day of Week for Start Day
  ;                                       !- Is Leap Year

OS:ThermalZone,
  {8f8a4c29-c604-4b18-bbe1-5c7961a2d9b4}, !- Handle
  living zone,                            !- Name
  ,                                       !- Multiplier
  ,                                       !- Ceiling Height {m}
  ,                                       !- Volume {m3}
  ,                                       !- Floor Area {m2}
  ,                                       !- Zone Inside Convection Algorithm
  ,                                       !- Zone Outside Convection Algorithm
  ,                                       !- Zone Conditioning Equipment List Name
  {2c3d9f33-4186-42ea-80af-39ed6272647b}, !- Zone Air Inlet Port List
  {a45a1cac-e8ab-45c7-8bf0-0001bd56f3f3}, !- Zone Air Exhaust Port List
  {c3c5fe2e-e57d-497c-b07f-b366d0950f56}, !- Zone Air Node Name
  {a4d7a98b-1f9a-4c08-b6f3-8f1d106e81ca}, !- Zone Return Air Port List
  ,                                       !- Primary Daylighting Control Name
  ,                                       !- Fraction of Zone Controlled by Primary Daylighting Control
  ,                                       !- Secondary Daylighting Control Name
  ,                                       !- Fraction of Zone Controlled by Secondary Daylighting Control
  ,                                       !- Illuminance Map Name
  ,                                       !- Group Rendering Name
  {129e8694-3c2a-4043-ad31-e38532ffe292}, !- Thermostat Name
  No;                                     !- Use Ideal Air Loads

OS:Node,
  {107bb79c-e46e-4b07-8fbf-9692d45eceef}, !- Handle
  Node 1,                                 !- Name
  {c3c5fe2e-e57d-497c-b07f-b366d0950f56}, !- Inlet Port
  ;                                       !- Outlet Port

OS:Connection,
  {c3c5fe2e-e57d-497c-b07f-b366d0950f56}, !- Handle
  {1df52772-112a-4571-9bf4-cc28fee410c0}, !- Name
  {8f8a4c29-c604-4b18-bbe1-5c7961a2d9b4}, !- Source Object
  11,                                     !- Outlet Port
  {107bb79c-e46e-4b07-8fbf-9692d45eceef}, !- Target Object
  2;                                      !- Inlet Port

OS:PortList,
  {2c3d9f33-4186-42ea-80af-39ed6272647b}, !- Handle
  {ecbdc6ee-26e6-4281-89f6-2e16e7388c50}, !- Name
  {8f8a4c29-c604-4b18-bbe1-5c7961a2d9b4}, !- HVAC Component
  {2e6c15ce-5dd5-455a-b665-8965f08267cb}, !- Port 1
  {ffdcb04d-fee3-4d74-88ed-5e45f769ba04}; !- Port 2

OS:PortList,
  {a45a1cac-e8ab-45c7-8bf0-0001bd56f3f3}, !- Handle
  {fa30a75a-1320-447f-9946-90d1e41a7843}, !- Name
  {8f8a4c29-c604-4b18-bbe1-5c7961a2d9b4}; !- HVAC Component

OS:PortList,
  {a4d7a98b-1f9a-4c08-b6f3-8f1d106e81ca}, !- Handle
  {0dc4c781-7024-44dd-836a-dec8236334c1}, !- Name
  {8f8a4c29-c604-4b18-bbe1-5c7961a2d9b4}, !- HVAC Component
  {0885c2c1-2002-49dd-a3df-21ac7a5dea42}, !- Port 1
  {96c83a8a-24ba-49ee-8ae5-9b76e6419dc1}; !- Port 2

OS:Sizing:Zone,
  {b598075d-4bc0-407e-805e-4e2fa3e675b3}, !- Handle
  {8f8a4c29-c604-4b18-bbe1-5c7961a2d9b4}, !- Zone or ZoneList Name
  SupplyAirTemperature,                   !- Zone Cooling Design Supply Air Temperature Input Method
  14,                                     !- Zone Cooling Design Supply Air Temperature {C}
  11.11,                                  !- Zone Cooling Design Supply Air Temperature Difference {deltaC}
  SupplyAirTemperature,                   !- Zone Heating Design Supply Air Temperature Input Method
  40,                                     !- Zone Heating Design Supply Air Temperature {C}
  11.11,                                  !- Zone Heating Design Supply Air Temperature Difference {deltaC}
  0.0085,                                 !- Zone Cooling Design Supply Air Humidity Ratio {kg-H2O/kg-air}
  0.008,                                  !- Zone Heating Design Supply Air Humidity Ratio {kg-H2O/kg-air}
  ,                                       !- Zone Heating Sizing Factor
  ,                                       !- Zone Cooling Sizing Factor
  DesignDay,                              !- Cooling Design Air Flow Method
  ,                                       !- Cooling Design Air Flow Rate {m3/s}
  ,                                       !- Cooling Minimum Air Flow per Zone Floor Area {m3/s-m2}
  ,                                       !- Cooling Minimum Air Flow {m3/s}
  ,                                       !- Cooling Minimum Air Flow Fraction
  DesignDay,                              !- Heating Design Air Flow Method
  ,                                       !- Heating Design Air Flow Rate {m3/s}
  ,                                       !- Heating Maximum Air Flow per Zone Floor Area {m3/s-m2}
  ,                                       !- Heating Maximum Air Flow {m3/s}
  ,                                       !- Heating Maximum Air Flow Fraction
  ,                                       !- Design Zone Air Distribution Effectiveness in Cooling Mode
  ,                                       !- Design Zone Air Distribution Effectiveness in Heating Mode
  No,                                     !- Account for Dedicated Outdoor Air System
  NeutralSupplyAir,                       !- Dedicated Outdoor Air System Control Strategy
  autosize,                               !- Dedicated Outdoor Air Low Setpoint Temperature for Design {C}
  autosize;                               !- Dedicated Outdoor Air High Setpoint Temperature for Design {C}

OS:ZoneHVAC:EquipmentList,
  {748f9152-bef4-464e-8ded-d03e71eb1741}, !- Handle
  Zone HVAC Equipment List 1,             !- Name
  {8f8a4c29-c604-4b18-bbe1-5c7961a2d9b4}, !- Thermal Zone
  SequentialLoad,                         !- Load Distribution Scheme
  {6b689f86-9a8f-4d63-b8b4-b1858b901b2d}, !- Zone Equipment 1
  1,                                      !- Zone Equipment Cooling Sequence 1
  1,                                      !- Zone Equipment Heating or No-Load Sequence 1
  ,                                       !- Zone Equipment Sequential Cooling Fraction Schedule Name 1
  ,                                       !- Zone Equipment Sequential Heating Fraction Schedule Name 1
  {d0bc6e1b-71bf-40aa-a19b-e54a28f13260}, !- Zone Equipment 2
  2,                                      !- Zone Equipment Cooling Sequence 2
  2,                                      !- Zone Equipment Heating or No-Load Sequence 2
  ,                                       !- Zone Equipment Sequential Cooling Fraction Schedule Name 2
  ;                                       !- Zone Equipment Sequential Heating Fraction Schedule Name 2

OS:ThermalZone,
  {20ad97d2-b7ae-43a0-aafd-70ae75f22836}, !- Handle
  garage zone,                            !- Name
  ,                                       !- Multiplier
  ,                                       !- Ceiling Height {m}
  ,                                       !- Volume {m3}
  ,                                       !- Floor Area {m2}
  ,                                       !- Zone Inside Convection Algorithm
  ,                                       !- Zone Outside Convection Algorithm
  ,                                       !- Zone Conditioning Equipment List Name
  {cc33af20-fcc8-482f-9d06-4e6179734a86}, !- Zone Air Inlet Port List
  {a922864e-6bad-4d1d-9b7c-2883c377983e}, !- Zone Air Exhaust Port List
  {e1348455-24df-4a5f-b541-4a9a4c537930}, !- Zone Air Node Name
  {feb88c62-1e70-4a44-9289-f35ae4c50867}, !- Zone Return Air Port List
  ,                                       !- Primary Daylighting Control Name
  ,                                       !- Fraction of Zone Controlled by Primary Daylighting Control
  ,                                       !- Secondary Daylighting Control Name
  ,                                       !- Fraction of Zone Controlled by Secondary Daylighting Control
  ,                                       !- Illuminance Map Name
  ,                                       !- Group Rendering Name
  ,                                       !- Thermostat Name
  No;                                     !- Use Ideal Air Loads

OS:Node,
  {21a5c064-991a-45a8-a506-83a28d6aea28}, !- Handle
  Node 2,                                 !- Name
  {e1348455-24df-4a5f-b541-4a9a4c537930}, !- Inlet Port
  ;                                       !- Outlet Port

OS:Connection,
  {e1348455-24df-4a5f-b541-4a9a4c537930}, !- Handle
  {063d3acd-7dbf-42b6-b00e-56bcc15487b1}, !- Name
  {20ad97d2-b7ae-43a0-aafd-70ae75f22836}, !- Source Object
  11,                                     !- Outlet Port
  {21a5c064-991a-45a8-a506-83a28d6aea28}, !- Target Object
  2;                                      !- Inlet Port

OS:PortList,
  {cc33af20-fcc8-482f-9d06-4e6179734a86}, !- Handle
  {18357422-732b-4faa-aaa7-f26f23f8efba}, !- Name
  {20ad97d2-b7ae-43a0-aafd-70ae75f22836}; !- HVAC Component

OS:PortList,
  {a922864e-6bad-4d1d-9b7c-2883c377983e}, !- Handle
  {f1b2c42e-e99d-4aba-82fe-3b18b4b8e935}, !- Name
  {20ad97d2-b7ae-43a0-aafd-70ae75f22836}; !- HVAC Component

OS:PortList,
  {feb88c62-1e70-4a44-9289-f35ae4c50867}, !- Handle
  {6bb7cc19-3631-43a2-8b9e-b8fc2b770c88}, !- Name
  {20ad97d2-b7ae-43a0-aafd-70ae75f22836}; !- HVAC Component

OS:Sizing:Zone,
  {71a0787d-7cee-421f-a3d6-5b0b427d25fd}, !- Handle
  {20ad97d2-b7ae-43a0-aafd-70ae75f22836}, !- Zone or ZoneList Name
  SupplyAirTemperature,                   !- Zone Cooling Design Supply Air Temperature Input Method
  14,                                     !- Zone Cooling Design Supply Air Temperature {C}
  11.11,                                  !- Zone Cooling Design Supply Air Temperature Difference {deltaC}
  SupplyAirTemperature,                   !- Zone Heating Design Supply Air Temperature Input Method
  40,                                     !- Zone Heating Design Supply Air Temperature {C}
  11.11,                                  !- Zone Heating Design Supply Air Temperature Difference {deltaC}
  0.0085,                                 !- Zone Cooling Design Supply Air Humidity Ratio {kg-H2O/kg-air}
  0.008,                                  !- Zone Heating Design Supply Air Humidity Ratio {kg-H2O/kg-air}
  ,                                       !- Zone Heating Sizing Factor
  ,                                       !- Zone Cooling Sizing Factor
  DesignDay,                              !- Cooling Design Air Flow Method
  ,                                       !- Cooling Design Air Flow Rate {m3/s}
  ,                                       !- Cooling Minimum Air Flow per Zone Floor Area {m3/s-m2}
  ,                                       !- Cooling Minimum Air Flow {m3/s}
  ,                                       !- Cooling Minimum Air Flow Fraction
  DesignDay,                              !- Heating Design Air Flow Method
  ,                                       !- Heating Design Air Flow Rate {m3/s}
  ,                                       !- Heating Maximum Air Flow per Zone Floor Area {m3/s-m2}
  ,                                       !- Heating Maximum Air Flow {m3/s}
  ,                                       !- Heating Maximum Air Flow Fraction
  ,                                       !- Design Zone Air Distribution Effectiveness in Cooling Mode
  ,                                       !- Design Zone Air Distribution Effectiveness in Heating Mode
  No,                                     !- Account for Dedicated Outdoor Air System
  NeutralSupplyAir,                       !- Dedicated Outdoor Air System Control Strategy
  autosize,                               !- Dedicated Outdoor Air Low Setpoint Temperature for Design {C}
  autosize;                               !- Dedicated Outdoor Air High Setpoint Temperature for Design {C}

OS:ZoneHVAC:EquipmentList,
  {cddb19ad-2c61-4888-b3b8-081590a6fc86}, !- Handle
  Zone HVAC Equipment List 2,             !- Name
  {20ad97d2-b7ae-43a0-aafd-70ae75f22836}; !- Thermal Zone

OS:Space,
  {c02ae8f8-f5d2-4ea7-87b8-8b96844a2117}, !- Handle
  garage space,                           !- Name
  {dfd47aa3-f3e3-4e81-afb7-5ed853dbb15d}, !- Space Type Name
  ,                                       !- Default Construction Set Name
  ,                                       !- Default Schedule Set Name
  -0,                                     !- Direction of Relative North {deg}
  0,                                      !- X Origin {m}
  0,                                      !- Y Origin {m}
  0,                                      !- Z Origin {m}
  ,                                       !- Building Story Name
  {20ad97d2-b7ae-43a0-aafd-70ae75f22836}; !- Thermal Zone Name

OS:Surface,
  {e1234f67-9a1f-4567-adbe-dbbed0054b8f}, !- Handle
  Surface 1,                              !- Name
  Floor,                                  !- Surface Type
  ,                                       !- Construction Name
  {c02ae8f8-f5d2-4ea7-87b8-8b96844a2117}, !- Space Name
  Foundation,                             !- Outside Boundary Condition
  ,                                       !- Outside Boundary Condition Object
  NoSun,                                  !- Sun Exposure
  NoWind,                                 !- Wind Exposure
  ,                                       !- View Factor to Ground
  ,                                       !- Number of Vertices
  5.57695129776527, -3.048, 0,            !- X,Y,Z Vertex 1 {m}
  5.57695129776527, 3.048, 0,             !- X,Y,Z Vertex 2 {m}
  11.6729512977653, 3.048, 0,             !- X,Y,Z Vertex 3 {m}
  11.6729512977653, -3.048, 0;            !- X,Y,Z Vertex 4 {m}

OS:Surface,
  {1460110f-9deb-49d4-a94e-daa7761cc662}, !- Handle
  Surface 2,                              !- Name
  Wall,                                   !- Surface Type
  ,                                       !- Construction Name
  {c02ae8f8-f5d2-4ea7-87b8-8b96844a2117}, !- Space Name
  Surface,                                !- Outside Boundary Condition
  {bf8c73d6-bb19-4caa-a76a-79e30e85cbeb}, !- Outside Boundary Condition Object
  NoSun,                                  !- Sun Exposure
  NoWind,                                 !- Wind Exposure
  ,                                       !- View Factor to Ground
  ,                                       !- Number of Vertices
  5.57695129776527, 3.048, 2.4384,        !- X,Y,Z Vertex 1 {m}
  5.57695129776527, 3.048, 0,             !- X,Y,Z Vertex 2 {m}
  5.57695129776527, 0, 0,                 !- X,Y,Z Vertex 3 {m}
  5.57695129776527, 0, 2.4384;            !- X,Y,Z Vertex 4 {m}

OS:Surface,
  {9d2180c8-1916-4ef7-a258-d06e013cf900}, !- Handle
  Surface 3,                              !- Name
  Wall,                                   !- Surface Type
  ,                                       !- Construction Name
  {c02ae8f8-f5d2-4ea7-87b8-8b96844a2117}, !- Space Name
  Surface,                                !- Outside Boundary Condition
  {c2500650-2bd1-4693-a110-4660abba8efe}, !- Outside Boundary Condition Object
  NoSun,                                  !- Sun Exposure
  NoWind,                                 !- Wind Exposure
  ,                                       !- View Factor to Ground
  ,                                       !- Number of Vertices
  11.6729512977653, 3.048, 2.4384,        !- X,Y,Z Vertex 1 {m}
  11.6729512977653, 3.048, 0,             !- X,Y,Z Vertex 2 {m}
  5.57695129776527, 3.048, 0,             !- X,Y,Z Vertex 3 {m}
  5.57695129776527, 3.048, 2.4384;        !- X,Y,Z Vertex 4 {m}

OS:Surface,
  {f5de5d2b-028c-4168-8d15-725028dc0855}, !- Handle
  Surface 4,                              !- Name
  Wall,                                   !- Surface Type
  ,                                       !- Construction Name
  {c02ae8f8-f5d2-4ea7-87b8-8b96844a2117}, !- Space Name
  Outdoors,                               !- Outside Boundary Condition
  ,                                       !- Outside Boundary Condition Object
  SunExposed,                             !- Sun Exposure
  WindExposed,                            !- Wind Exposure
  ,                                       !- View Factor to Ground
  ,                                       !- Number of Vertices
  11.6729512977653, -3.048, 2.4384,       !- X,Y,Z Vertex 1 {m}
  11.6729512977653, -3.048, 0,            !- X,Y,Z Vertex 2 {m}
  11.6729512977653, 3.048, 0,             !- X,Y,Z Vertex 3 {m}
  11.6729512977653, 3.048, 2.4384;        !- X,Y,Z Vertex 4 {m}

OS:Surface,
  {5c1a0c33-9328-4230-8413-513758a787f5}, !- Handle
  Surface 5,                              !- Name
  Wall,                                   !- Surface Type
  ,                                       !- Construction Name
  {c02ae8f8-f5d2-4ea7-87b8-8b96844a2117}, !- Space Name
  Outdoors,                               !- Outside Boundary Condition
  ,                                       !- Outside Boundary Condition Object
  SunExposed,                             !- Sun Exposure
  WindExposed,                            !- Wind Exposure
  ,                                       !- View Factor to Ground
  ,                                       !- Number of Vertices
  5.57695129776527, -3.048, 2.4384,       !- X,Y,Z Vertex 1 {m}
  5.57695129776527, -3.048, 0,            !- X,Y,Z Vertex 2 {m}
  11.6729512977653, -3.048, 0,            !- X,Y,Z Vertex 3 {m}
  11.6729512977653, -3.048, 2.4384;       !- X,Y,Z Vertex 4 {m}

OS:Surface,
  {e3a98447-d040-4442-b01c-89e90ff67b77}, !- Handle
  Surface 6,                              !- Name
  RoofCeiling,                            !- Surface Type
  ,                                       !- Construction Name
  {c02ae8f8-f5d2-4ea7-87b8-8b96844a2117}, !- Space Name
  Surface,                                !- Outside Boundary Condition
  {d3a9cd13-e415-424c-84a2-0fbb71d44cb7}, !- Outside Boundary Condition Object
  NoSun,                                  !- Sun Exposure
  NoWind,                                 !- Wind Exposure
  ,                                       !- View Factor to Ground
  ,                                       !- Number of Vertices
  11.6729512977653, -3.048, 2.4384,       !- X,Y,Z Vertex 1 {m}
  11.6729512977653, 3.048, 2.4384,        !- X,Y,Z Vertex 2 {m}
  5.57695129776527, 3.048, 2.4384,        !- X,Y,Z Vertex 3 {m}
  5.57695129776527, -3.048, 2.4384;       !- X,Y,Z Vertex 4 {m}

OS:SpaceType,
  {dfd47aa3-f3e3-4e81-afb7-5ed853dbb15d}, !- Handle
  Space Type 1,                           !- Name
  ,                                       !- Default Construction Set Name
  ,                                       !- Default Schedule Set Name
  ,                                       !- Group Rendering Name
  ,                                       !- Design Specification Outdoor Air Object Name
  ,                                       !- Standards Template
  ,                                       !- Standards Building Type
  garage;                                 !- Standards Space Type

OS:Space,
  {fa80afcc-b5f5-4ee1-bc76-3951681d9ea6}, !- Handle
  living space,                           !- Name
  {994b68bd-aaa7-4f3a-9789-f69d44def4b2}, !- Space Type Name
  ,                                       !- Default Construction Set Name
  ,                                       !- Default Schedule Set Name
  -0,                                     !- Direction of Relative North {deg}
  0,                                      !- X Origin {m}
  0,                                      !- Y Origin {m}
  0,                                      !- Z Origin {m}
  ,                                       !- Building Story Name
  {8f8a4c29-c604-4b18-bbe1-5c7961a2d9b4}, !- Thermal Zone Name
  ,                                       !- Part of Total Floor Area
  ,                                       !- Design Specification Outdoor Air Object Name
  {8b8087e3-a068-4f9d-9977-91a7f35a12cc}; !- Building Unit Name

OS:Surface,
  {4c499d4a-8b24-4330-9646-042523a6605f}, !- Handle
  Surface 7,                              !- Name
  Floor,                                  !- Surface Type
  ,                                       !- Construction Name
  {fa80afcc-b5f5-4ee1-bc76-3951681d9ea6}, !- Space Name
  Surface,                                !- Outside Boundary Condition
  {bf0f8533-7504-4239-b6b4-0e08bcece64f}, !- Outside Boundary Condition Object
  NoSun,                                  !- Sun Exposure
  NoWind,                                 !- Wind Exposure
  ,                                       !- View Factor to Ground
  ,                                       !- Number of Vertices
  0, 0, 0,                                !- X,Y,Z Vertex 1 {m}
  0, 5.83647564888264, 0,                 !- X,Y,Z Vertex 2 {m}
  11.6729512977653, 5.83647564888264, 0,  !- X,Y,Z Vertex 3 {m}
  11.6729512977653, 3.048, 0,             !- X,Y,Z Vertex 4 {m}
  5.57695129776527, 3.048, 0,             !- X,Y,Z Vertex 5 {m}
  5.57695129776527, 0, 0;                 !- X,Y,Z Vertex 6 {m}

OS:Surface,
  {b9e4c7df-fbc6-41d4-a711-2c925cbef1c4}, !- Handle
  Surface 8,                              !- Name
  Wall,                                   !- Surface Type
  ,                                       !- Construction Name
  {fa80afcc-b5f5-4ee1-bc76-3951681d9ea6}, !- Space Name
  Outdoors,                               !- Outside Boundary Condition
  ,                                       !- Outside Boundary Condition Object
  SunExposed,                             !- Sun Exposure
  WindExposed,                            !- Wind Exposure
  ,                                       !- View Factor to Ground
  ,                                       !- Number of Vertices
  0, 5.83647564888264, 2.4384,            !- X,Y,Z Vertex 1 {m}
  0, 5.83647564888264, 0,                 !- X,Y,Z Vertex 2 {m}
  0, 0, 0,                                !- X,Y,Z Vertex 3 {m}
  0, 0, 2.4384;                           !- X,Y,Z Vertex 4 {m}

OS:Surface,
  {515e5e92-aa00-421b-9179-e5fb992978bd}, !- Handle
  Surface 9,                              !- Name
  Wall,                                   !- Surface Type
  ,                                       !- Construction Name
  {fa80afcc-b5f5-4ee1-bc76-3951681d9ea6}, !- Space Name
  Outdoors,                               !- Outside Boundary Condition
  ,                                       !- Outside Boundary Condition Object
  SunExposed,                             !- Sun Exposure
  WindExposed,                            !- Wind Exposure
  ,                                       !- View Factor to Ground
  ,                                       !- Number of Vertices
  11.6729512977653, 5.83647564888264, 2.4384, !- X,Y,Z Vertex 1 {m}
  11.6729512977653, 5.83647564888264, 0,  !- X,Y,Z Vertex 2 {m}
  0, 5.83647564888264, 0,                 !- X,Y,Z Vertex 3 {m}
  0, 5.83647564888264, 2.4384;            !- X,Y,Z Vertex 4 {m}

OS:Surface,
  {16bc2ade-0ca8-41d4-8cf2-e7563257673e}, !- Handle
  Surface 10,                             !- Name
  Wall,                                   !- Surface Type
  ,                                       !- Construction Name
  {fa80afcc-b5f5-4ee1-bc76-3951681d9ea6}, !- Space Name
  Outdoors,                               !- Outside Boundary Condition
  ,                                       !- Outside Boundary Condition Object
  SunExposed,                             !- Sun Exposure
  WindExposed,                            !- Wind Exposure
  ,                                       !- View Factor to Ground
  ,                                       !- Number of Vertices
  11.6729512977653, 3.048, 2.4384,        !- X,Y,Z Vertex 1 {m}
  11.6729512977653, 3.048, 0,             !- X,Y,Z Vertex 2 {m}
  11.6729512977653, 5.83647564888264, 0,  !- X,Y,Z Vertex 3 {m}
  11.6729512977653, 5.83647564888264, 2.4384; !- X,Y,Z Vertex 4 {m}

OS:Surface,
  {c2500650-2bd1-4693-a110-4660abba8efe}, !- Handle
  Surface 11,                             !- Name
  Wall,                                   !- Surface Type
  ,                                       !- Construction Name
  {fa80afcc-b5f5-4ee1-bc76-3951681d9ea6}, !- Space Name
  Surface,                                !- Outside Boundary Condition
  {9d2180c8-1916-4ef7-a258-d06e013cf900}, !- Outside Boundary Condition Object
  NoSun,                                  !- Sun Exposure
  NoWind,                                 !- Wind Exposure
  ,                                       !- View Factor to Ground
  ,                                       !- Number of Vertices
  5.57695129776527, 3.048, 2.4384,        !- X,Y,Z Vertex 1 {m}
  5.57695129776527, 3.048, 0,             !- X,Y,Z Vertex 2 {m}
  11.6729512977653, 3.048, 0,             !- X,Y,Z Vertex 3 {m}
  11.6729512977653, 3.048, 2.4384;        !- X,Y,Z Vertex 4 {m}

OS:Surface,
  {bf8c73d6-bb19-4caa-a76a-79e30e85cbeb}, !- Handle
  Surface 12,                             !- Name
  Wall,                                   !- Surface Type
  ,                                       !- Construction Name
  {fa80afcc-b5f5-4ee1-bc76-3951681d9ea6}, !- Space Name
  Surface,                                !- Outside Boundary Condition
  {1460110f-9deb-49d4-a94e-daa7761cc662}, !- Outside Boundary Condition Object
  NoSun,                                  !- Sun Exposure
  NoWind,                                 !- Wind Exposure
  ,                                       !- View Factor to Ground
  ,                                       !- Number of Vertices
  5.57695129776527, 0, 2.4384,            !- X,Y,Z Vertex 1 {m}
  5.57695129776527, 0, 0,                 !- X,Y,Z Vertex 2 {m}
  5.57695129776527, 3.048, 0,             !- X,Y,Z Vertex 3 {m}
  5.57695129776527, 3.048, 2.4384;        !- X,Y,Z Vertex 4 {m}

OS:Surface,
  {8aa85014-86a7-47b2-8da5-3b4d4791ab97}, !- Handle
  Surface 13,                             !- Name
  Wall,                                   !- Surface Type
  ,                                       !- Construction Name
  {fa80afcc-b5f5-4ee1-bc76-3951681d9ea6}, !- Space Name
  Outdoors,                               !- Outside Boundary Condition
  ,                                       !- Outside Boundary Condition Object
  SunExposed,                             !- Sun Exposure
  WindExposed,                            !- Wind Exposure
  ,                                       !- View Factor to Ground
  ,                                       !- Number of Vertices
  0, 0, 2.4384,                           !- X,Y,Z Vertex 1 {m}
  0, 0, 0,                                !- X,Y,Z Vertex 2 {m}
  5.57695129776527, 0, 0,                 !- X,Y,Z Vertex 3 {m}
  5.57695129776527, 0, 2.4384;            !- X,Y,Z Vertex 4 {m}

OS:Surface,
  {f1fd9a5b-9843-4070-81e4-4d889c096b18}, !- Handle
  Surface 14,                             !- Name
  RoofCeiling,                            !- Surface Type
  ,                                       !- Construction Name
  {fa80afcc-b5f5-4ee1-bc76-3951681d9ea6}, !- Space Name
  Surface,                                !- Outside Boundary Condition
  {88fdcee7-c082-4791-90d2-af0de7f90e51}, !- Outside Boundary Condition Object
  NoSun,                                  !- Sun Exposure
  NoWind,                                 !- Wind Exposure
  ,                                       !- View Factor to Ground
  ,                                       !- Number of Vertices
  5.57695129776527, 0, 2.4384,            !- X,Y,Z Vertex 1 {m}
  5.57695129776527, 3.048, 2.4384,        !- X,Y,Z Vertex 2 {m}