!- NOTE: Auto-generated from /test/osw_files/SFD_2000sqft_2story_UB_GRG_UA.osw

OS:Version,
  {002410f7-d613-47ff-b55d-92498952447e}, !- Handle
  2.9.0;                                  !- Version Identifier

OS:SimulationControl,
  {05f3ab1f-cc11-44a6-942e-afc6d2d70092}, !- Handle
  ,                                       !- Do Zone Sizing Calculation
  ,                                       !- Do System Sizing Calculation
  ,                                       !- Do Plant Sizing Calculation
  No;                                     !- Run Simulation for Sizing Periods

OS:Timestep,
  {6c9f7846-274f-4a66-a85f-cd93f8b7522b}, !- Handle
  6;                                      !- Number of Timesteps per Hour

OS:ShadowCalculation,
  {f6796e7f-8806-457f-a294-856685de29f5}, !- Handle
  20,                                     !- Calculation Frequency
  200;                                    !- Maximum Figures in Shadow Overlap Calculations

OS:SurfaceConvectionAlgorithm:Outside,
  {a87a8083-73b0-449e-a2fc-67b0b3ce1713}, !- Handle
  DOE-2;                                  !- Algorithm

OS:SurfaceConvectionAlgorithm:Inside,
  {62f3638d-1e92-4270-bffe-bf1b50f77f64}, !- Handle
  TARP;                                   !- Algorithm

OS:ZoneCapacitanceMultiplier:ResearchSpecial,
  {f0d0de3e-7605-40e1-9507-9753c09c1d25}, !- Handle
  ,                                       !- Temperature Capacity Multiplier
  15,                                     !- Humidity Capacity Multiplier
  ;                                       !- Carbon Dioxide Capacity Multiplier

OS:RunPeriod,
  {b21956f0-33ca-41e3-83e8-40ae16353aa7}, !- Handle
  Run Period 1,                           !- Name
  1,                                      !- Begin Month
  1,                                      !- Begin Day of Month
  12,                                     !- End Month
  31,                                     !- End Day of Month
  ,                                       !- Use Weather File Holidays and Special Days
  ,                                       !- Use Weather File Daylight Saving Period
  ,                                       !- Apply Weekend Holiday Rule
  ,                                       !- Use Weather File Rain Indicators
  ,                                       !- Use Weather File Snow Indicators
  ;                                       !- Number of Times Runperiod to be Repeated

OS:YearDescription,
  {a05062e6-d041-4f0f-bad3-265ab96f69bb}, !- Handle
  2007,                                   !- Calendar Year
  ,                                       !- Day of Week for Start Day
  ;                                       !- Is Leap Year

OS:ThermalZone,
  {e69e81f9-9d9c-40e3-a5af-01db62ea22da}, !- Handle
  living zone,                            !- Name
  ,                                       !- Multiplier
  ,                                       !- Ceiling Height {m}
  ,                                       !- Volume {m3}
  ,                                       !- Floor Area {m2}
  ,                                       !- Zone Inside Convection Algorithm
  ,                                       !- Zone Outside Convection Algorithm
  ,                                       !- Zone Conditioning Equipment List Name
  {a642f01d-e928-4d51-90f4-90dcadbcf945}, !- Zone Air Inlet Port List
  {36f08a95-3f0e-4c8c-b765-340ef00e490d}, !- Zone Air Exhaust Port List
  {8cfa7edf-2ae0-4a6d-afc7-9593019466f5}, !- Zone Air Node Name
  {b74c58f9-8300-4b25-b32f-0f1164e321b6}, !- Zone Return Air Port List
  ,                                       !- Primary Daylighting Control Name
  ,                                       !- Fraction of Zone Controlled by Primary Daylighting Control
  ,                                       !- Secondary Daylighting Control Name
  ,                                       !- Fraction of Zone Controlled by Secondary Daylighting Control
  ,                                       !- Illuminance Map Name
  ,                                       !- Group Rendering Name
  ,                                       !- Thermostat Name
  No;                                     !- Use Ideal Air Loads

OS:Node,
  {3d6d58f5-79d0-4e25-befe-61546a2b97a1}, !- Handle
  Node 1,                                 !- Name
  {8cfa7edf-2ae0-4a6d-afc7-9593019466f5}, !- Inlet Port
  ;                                       !- Outlet Port

OS:Connection,
  {8cfa7edf-2ae0-4a6d-afc7-9593019466f5}, !- Handle
  {ddaf9208-eb65-4c02-886b-6a53aa50bd93}, !- Name
  {e69e81f9-9d9c-40e3-a5af-01db62ea22da}, !- Source Object
  11,                                     !- Outlet Port
  {3d6d58f5-79d0-4e25-befe-61546a2b97a1}, !- Target Object
  2;                                      !- Inlet Port

OS:PortList,
  {a642f01d-e928-4d51-90f4-90dcadbcf945}, !- Handle
  {bc42bcc6-cc56-44f9-8b92-a2c7e6a2b228}, !- Name
  {e69e81f9-9d9c-40e3-a5af-01db62ea22da}; !- HVAC Component

OS:PortList,
  {36f08a95-3f0e-4c8c-b765-340ef00e490d}, !- Handle
  {268ea39b-044e-49dc-aaa2-6984b493cf72}, !- Name
  {e69e81f9-9d9c-40e3-a5af-01db62ea22da}; !- HVAC Component

OS:PortList,
  {b74c58f9-8300-4b25-b32f-0f1164e321b6}, !- Handle
  {44f2c792-a598-4d05-83a0-232d25ad77ec}, !- Name
  {e69e81f9-9d9c-40e3-a5af-01db62ea22da}; !- HVAC Component

OS:Sizing:Zone,
  {2b9cae09-977d-4438-a29d-1c2f4020cf20}, !- Handle
  {e69e81f9-9d9c-40e3-a5af-01db62ea22da}, !- Zone or ZoneList Name
  SupplyAirTemperature,                   !- Zone Cooling Design Supply Air Temperature Input Method
  14,                                     !- Zone Cooling Design Supply Air Temperature {C}
  11.11,                                  !- Zone Cooling Design Supply Air Temperature Difference {deltaC}
  SupplyAirTemperature,                   !- Zone Heating Design Supply Air Temperature Input Method
  40,                                     !- Zone Heating Design Supply Air Temperature {C}
  11.11,                                  !- Zone Heating Design Supply Air Temperature Difference {deltaC}
  0.0085,                                 !- Zone Cooling Design Supply Air Humidity Ratio {kg-H2O/kg-air}
  0.008,                                  !- Zone Heating Design Supply Air Humidity Ratio {kg-H2O/kg-air}
  ,                                       !- Zone Heating Sizing Factor
  ,                                       !- Zone Cooling Sizing Factor
  DesignDay,                              !- Cooling Design Air Flow Method
  ,                                       !- Cooling Design Air Flow Rate {m3/s}
  ,                                       !- Cooling Minimum Air Flow per Zone Floor Area {m3/s-m2}
  ,                                       !- Cooling Minimum Air Flow {m3/s}
  ,                                       !- Cooling Minimum Air Flow Fraction
  DesignDay,                              !- Heating Design Air Flow Method
  ,                                       !- Heating Design Air Flow Rate {m3/s}
  ,                                       !- Heating Maximum Air Flow per Zone Floor Area {m3/s-m2}
  ,                                       !- Heating Maximum Air Flow {m3/s}
  ,                                       !- Heating Maximum Air Flow Fraction
  ,                                       !- Design Zone Air Distribution Effectiveness in Cooling Mode
  ,                                       !- Design Zone Air Distribution Effectiveness in Heating Mode
  No,                                     !- Account for Dedicated Outdoor Air System
  NeutralSupplyAir,                       !- Dedicated Outdoor Air System Control Strategy
  autosize,                               !- Dedicated Outdoor Air Low Setpoint Temperature for Design {C}
  autosize;                               !- Dedicated Outdoor Air High Setpoint Temperature for Design {C}

OS:ZoneHVAC:EquipmentList,
  {f373dfc8-03dd-4ce1-b313-81f16290dc62}, !- Handle
  Zone HVAC Equipment List 1,             !- Name
  {e69e81f9-9d9c-40e3-a5af-01db62ea22da}; !- Thermal Zone

OS:ThermalZone,
  {9ce4dd0d-e86a-4e25-9a8d-def0f67d2f5b}, !- Handle
  garage zone,                            !- Name
  ,                                       !- Multiplier
  ,                                       !- Ceiling Height {m}
  ,                                       !- Volume {m3}
  ,                                       !- Floor Area {m2}
  ,                                       !- Zone Inside Convection Algorithm
  ,                                       !- Zone Outside Convection Algorithm
  ,                                       !- Zone Conditioning Equipment List Name
  {72a9734e-b0f6-4b7a-b41a-0f97f49c247d}, !- Zone Air Inlet Port List
  {ba86e29b-5ef9-44e9-9455-b65a767a540b}, !- Zone Air Exhaust Port List
  {2a7934ec-dfa8-40b8-a12a-2931dca00c1b}, !- Zone Air Node Name
  {6538f473-38a8-4f14-9304-716bad79231f}, !- Zone Return Air Port List
  ,                                       !- Primary Daylighting Control Name
  ,                                       !- Fraction of Zone Controlled by Primary Daylighting Control
  ,                                       !- Secondary Daylighting Control Name
  ,                                       !- Fraction of Zone Controlled by Secondary Daylighting Control
  ,                                       !- Illuminance Map Name
  ,                                       !- Group Rendering Name
  ,                                       !- Thermostat Name
  No;                                     !- Use Ideal Air Loads

OS:Node,
  {57ca2308-ca1d-4baf-b7fe-78c043c98e77}, !- Handle
  Node 2,                                 !- Name
  {2a7934ec-dfa8-40b8-a12a-2931dca00c1b}, !- Inlet Port
  ;                                       !- Outlet Port

OS:Connection,
  {2a7934ec-dfa8-40b8-a12a-2931dca00c1b}, !- Handle
  {945fd99c-2fbf-4566-89f1-057cba464871}, !- Name
  {9ce4dd0d-e86a-4e25-9a8d-def0f67d2f5b}, !- Source Object
  11,                                     !- Outlet Port
  {57ca2308-ca1d-4baf-b7fe-78c043c98e77}, !- Target Object
  2;                                      !- Inlet Port

OS:PortList,
  {72a9734e-b0f6-4b7a-b41a-0f97f49c247d}, !- Handle
  {6895a701-1d78-4d94-a948-43c845d73408}, !- Name
  {9ce4dd0d-e86a-4e25-9a8d-def0f67d2f5b}; !- HVAC Component

OS:PortList,
  {ba86e29b-5ef9-44e9-9455-b65a767a540b}, !- Handle
  {d6ba7da1-396c-44d7-b566-86d3e74f769b}, !- Name
  {9ce4dd0d-e86a-4e25-9a8d-def0f67d2f5b}; !- HVAC Component

OS:PortList,
  {6538f473-38a8-4f14-9304-716bad79231f}, !- Handle
  {35e232b3-c58f-41bd-8731-903f920a9342}, !- Name
  {9ce4dd0d-e86a-4e25-9a8d-def0f67d2f5b}; !- HVAC Component

OS:Sizing:Zone,
  {3665c90a-9e84-4d4d-812e-efdbb3295df4}, !- Handle
  {9ce4dd0d-e86a-4e25-9a8d-def0f67d2f5b}, !- Zone or ZoneList Name
  SupplyAirTemperature,                   !- Zone Cooling Design Supply Air Temperature Input Method
  14,                                     !- Zone Cooling Design Supply Air Temperature {C}
  11.11,                                  !- Zone Cooling Design Supply Air Temperature Difference {deltaC}
  SupplyAirTemperature,                   !- Zone Heating Design Supply Air Temperature Input Method
  40,                                     !- Zone Heating Design Supply Air Temperature {C}
  11.11,                                  !- Zone Heating Design Supply Air Temperature Difference {deltaC}
  0.0085,                                 !- Zone Cooling Design Supply Air Humidity Ratio {kg-H2O/kg-air}
  0.008,                                  !- Zone Heating Design Supply Air Humidity Ratio {kg-H2O/kg-air}
  ,                                       !- Zone Heating Sizing Factor
  ,                                       !- Zone Cooling Sizing Factor
  DesignDay,                              !- Cooling Design Air Flow Method
  ,                                       !- Cooling Design Air Flow Rate {m3/s}
  ,                                       !- Cooling Minimum Air Flow per Zone Floor Area {m3/s-m2}
  ,                                       !- Cooling Minimum Air Flow {m3/s}
  ,                                       !- Cooling Minimum Air Flow Fraction
  DesignDay,                              !- Heating Design Air Flow Method
  ,                                       !- Heating Design Air Flow Rate {m3/s}
  ,                                       !- Heating Maximum Air Flow per Zone Floor Area {m3/s-m2}
  ,                                       !- Heating Maximum Air Flow {m3/s}
  ,                                       !- Heating Maximum Air Flow Fraction
  ,                                       !- Design Zone Air Distribution Effectiveness in Cooling Mode
  ,                                       !- Design Zone Air Distribution Effectiveness in Heating Mode
  No,                                     !- Account for Dedicated Outdoor Air System
  NeutralSupplyAir,                       !- Dedicated Outdoor Air System Control Strategy
  autosize,                               !- Dedicated Outdoor Air Low Setpoint Temperature for Design {C}
  autosize;                               !- Dedicated Outdoor Air High Setpoint Temperature for Design {C}

OS:ZoneHVAC:EquipmentList,
  {47850440-b49c-4b34-9f24-1f23f5519dae}, !- Handle
  Zone HVAC Equipment List 2,             !- Name
  {9ce4dd0d-e86a-4e25-9a8d-def0f67d2f5b}; !- Thermal Zone

OS:Space,
  {613f7d3b-8f03-41bc-976a-1481d94e095f}, !- Handle
  garage space,                           !- Name
  {2414dd85-af48-4eb3-bc8f-06fd4f4bc873}, !- Space Type Name
  ,                                       !- Default Construction Set Name
  ,                                       !- Default Schedule Set Name
  -0,                                     !- Direction of Relative North {deg}
  0,                                      !- X Origin {m}
  0,                                      !- Y Origin {m}
  0,                                      !- Z Origin {m}
  ,                                       !- Building Story Name
  {9ce4dd0d-e86a-4e25-9a8d-def0f67d2f5b}; !- Thermal Zone Name

OS:Surface,
  {2e771467-f151-480a-9647-24738342f7c5}, !- Handle
  Surface 1,                              !- Name
  Floor,                                  !- Surface Type
  ,                                       !- Construction Name
  {613f7d3b-8f03-41bc-976a-1481d94e095f}, !- Space Name
  Foundation,                             !- Outside Boundary Condition
  ,                                       !- Outside Boundary Condition Object
  NoSun,                                  !- Sun Exposure
  NoWind,                                 !- Wind Exposure
  ,                                       !- View Factor to Ground
  ,                                       !- Number of Vertices
  8.83608947200625, 0, 0,                 !- X,Y,Z Vertex 1 {m}
  8.83608947200625, 6.096, 0,             !- X,Y,Z Vertex 2 {m}
  14.9320894720063, 6.096, 0,             !- X,Y,Z Vertex 3 {m}
  14.9320894720063, 0, 0;                 !- X,Y,Z Vertex 4 {m}

OS:Surface,
  {d5e3f656-4411-4057-a4ac-0b0f52c23525}, !- Handle
  Surface 2,                              !- Name
  Wall,                                   !- Surface Type
  ,                                       !- Construction Name
  {613f7d3b-8f03-41bc-976a-1481d94e095f}, !- Space Name
  Surface,                                !- Outside Boundary Condition
  {7278b9c2-2eb4-4faf-8ee2-cace46a4367e}, !- Outside Boundary Condition Object
  NoSun,                                  !- Sun Exposure
  NoWind,                                 !- Wind Exposure
  ,                                       !- View Factor to Ground
  ,                                       !- Number of Vertices
  8.83608947200625, 6.096, 2.4384,        !- X,Y,Z Vertex 1 {m}
  8.83608947200625, 6.096, 0,             !- X,Y,Z Vertex 2 {m}
  8.83608947200625, 0, 0,                 !- X,Y,Z Vertex 3 {m}
  8.83608947200625, 0, 2.4384;            !- X,Y,Z Vertex 4 {m}

OS:Surface,
  {38438176-0376-47c7-b5d6-d5369d1e9e6c}, !- Handle
  Surface 3,                              !- Name
  Wall,                                   !- Surface Type
  ,                                       !- Construction Name
  {613f7d3b-8f03-41bc-976a-1481d94e095f}, !- Space Name
  Surface,                                !- Outside Boundary Condition
  {38d44c5c-5349-47e3-80f7-5a1ae8412f07}, !- Outside Boundary Condition Object
  NoSun,                                  !- Sun Exposure
  NoWind,                                 !- Wind Exposure
  ,                                       !- View Factor to Ground
  ,                                       !- Number of Vertices
  14.9320894720063, 6.096, 2.4384,        !- X,Y,Z Vertex 1 {m}
  14.9320894720063, 6.096, 0,             !- X,Y,Z Vertex 2 {m}
  8.83608947200625, 6.096, 0,             !- X,Y,Z Vertex 3 {m}
  8.83608947200625, 6.096, 2.4384;        !- X,Y,Z Vertex 4 {m}

OS:Surface,
  {6aae1434-04d2-4d80-a17b-a4e3703b2529}, !- Handle
  Surface 4,                              !- Name
  Wall,                                   !- Surface Type
  ,                                       !- Construction Name
  {613f7d3b-8f03-41bc-976a-1481d94e095f}, !- Space Name
  Outdoors,                               !- Outside Boundary Condition
  ,                                       !- Outside Boundary Condition Object
  SunExposed,                             !- Sun Exposure
  WindExposed,                            !- Wind Exposure
  ,                                       !- View Factor to Ground
  ,                                       !- Number of Vertices
  14.9320894720063, 0, 2.4384,            !- X,Y,Z Vertex 1 {m}
  14.9320894720063, 0, 0,                 !- X,Y,Z Vertex 2 {m}
  14.9320894720063, 6.096, 0,             !- X,Y,Z Vertex 3 {m}
  14.9320894720063, 6.096, 2.4384;        !- X,Y,Z Vertex 4 {m}

OS:Surface,
  {cb0bf984-b924-4b25-98fc-d5e0930b88e1}, !- Handle
  Surface 5,                              !- Name
  Wall,                                   !- Surface Type
  ,                                       !- Construction Name
  {613f7d3b-8f03-41bc-976a-1481d94e095f}, !- Space Name
  Outdoors,                               !- Outside Boundary Condition
  ,                                       !- Outside Boundary Condition Object
  SunExposed,                             !- Sun Exposure
  WindExposed,                            !- Wind Exposure
  ,                                       !- View Factor to Ground
  ,                                       !- Number of Vertices
  8.83608947200625, 0, 2.4384,            !- X,Y,Z Vertex 1 {m}
  8.83608947200625, 0, 0,                 !- X,Y,Z Vertex 2 {m}
  14.9320894720063, 0, 0,                 !- X,Y,Z Vertex 3 {m}
  14.9320894720063, 0, 2.4384;            !- X,Y,Z Vertex 4 {m}

OS:Surface,
  {ce8f8f6e-b102-43ec-a126-71b5f643d586}, !- Handle
  Surface 6,                              !- Name
  RoofCeiling,                            !- Surface Type
  ,                                       !- Construction Name
  {613f7d3b-8f03-41bc-976a-1481d94e095f}, !- Space Name
  Surface,                                !- Outside Boundary Condition
  {98c40f36-bc81-4abc-b9b6-17c7343415c3}, !- Outside Boundary Condition Object
  NoSun,                                  !- Sun Exposure
  NoWind,                                 !- Wind Exposure
  ,                                       !- View Factor to Ground
  ,                                       !- Number of Vertices
  14.9320894720063, 0, 2.4384,            !- X,Y,Z Vertex 1 {m}
  14.9320894720063, 6.096, 2.4384,        !- X,Y,Z Vertex 2 {m}
  8.83608947200625, 6.096, 2.4384,        !- X,Y,Z Vertex 3 {m}
  8.83608947200625, 0, 2.4384;            !- X,Y,Z Vertex 4 {m}

OS:SpaceType,
  {2414dd85-af48-4eb3-bc8f-06fd4f4bc873}, !- Handle
  Space Type 1,                           !- Name
  ,                                       !- Default Construction Set Name
  ,                                       !- Default Schedule Set Name
  ,                                       !- Group Rendering Name
  ,                                       !- Design Specification Outdoor Air Object Name
  ,                                       !- Standards Template
  ,                                       !- Standards Building Type
  garage;                                 !- Standards Space Type

OS:Space,
  {b9661ddf-6911-4edf-91c0-3f813f185c06}, !- Handle
  living space,                           !- Name
  {7ce25b5b-1643-4e90-aeca-fecc94d234af}, !- Space Type Name
  ,                                       !- Default Construction Set Name
  ,                                       !- Default Schedule Set Name
  -0,                                     !- Direction of Relative North {deg}
  0,                                      !- X Origin {m}
  0,                                      !- Y Origin {m}
  0,                                      !- Z Origin {m}
  ,                                       !- Building Story Name
  {e69e81f9-9d9c-40e3-a5af-01db62ea22da}, !- Thermal Zone Name
  ,                                       !- Part of Total Floor Area
  ,                                       !- Design Specification Outdoor Air Object Name
  {725d46d0-cf9f-4807-925f-a27ae5adc601}; !- Building Unit Name

OS:Surface,
  {421f293f-28bf-4392-84dd-a0730693c655}, !- Handle
  Surface 7,                              !- Name
  Floor,                                  !- Surface Type
  ,                                       !- Construction Name
  {b9661ddf-6911-4edf-91c0-3f813f185c06}, !- Space Name
  Surface,                                !- Outside Boundary Condition
  {e8d0cb15-61a1-47f3-b7f2-e1e4cf8eb078}, !- Outside Boundary Condition Object
  NoSun,                                  !- Sun Exposure
  NoWind,                                 !- Wind Exposure
  ,                                       !- View Factor to Ground
  ,                                       !- Number of Vertices
  0, 0, 0,                                !- X,Y,Z Vertex 1 {m}
  0, 7.46604473600313, 0,                 !- X,Y,Z Vertex 2 {m}
  14.9320894720063, 7.46604473600313, 0,  !- X,Y,Z Vertex 3 {m}
  14.9320894720063, 6.096, 0,             !- X,Y,Z Vertex 4 {m}
  8.83608947200625, 6.096, 0,             !- X,Y,Z Vertex 5 {m}
  8.83608947200625, 0, 0;                 !- X,Y,Z Vertex 6 {m}

OS:Surface,
  {2c69fc4a-01f2-417f-8d57-1b8448491d6a}, !- Handle
  Surface 8,                              !- Name
  Wall,                                   !- Surface Type
  ,                                       !- Construction Name
  {b9661ddf-6911-4edf-91c0-3f813f185c06}, !- Space Name
  Outdoors,                               !- Outside Boundary Condition
  ,                                       !- Outside Boundary Condition Object
  SunExposed,                             !- Sun Exposure
  WindExposed,                            !- Wind Exposure
  ,                                       !- View Factor to Ground
  ,                                       !- Number of Vertices
  0, 7.46604473600313, 2.4384,            !- X,Y,Z Vertex 1 {m}
  0, 7.46604473600313, 0,                 !- X,Y,Z Vertex 2 {m}
  0, 0, 0,                                !- X,Y,Z Vertex 3 {m}
  0, 0, 2.4384;                           !- X,Y,Z Vertex 4 {m}

OS:Surface,
  {c7821357-4dfc-4cfb-b4b5-0bb32df08163}, !- Handle
  Surface 9,                              !- Name
  Wall,                                   !- Surface Type
  ,                                       !- Construction Name
  {b9661ddf-6911-4edf-91c0-3f813f185c06}, !- Space Name
  Outdoors,                               !- Outside Boundary Condition
  ,                                       !- Outside Boundary Condition Object
  SunExposed,                             !- Sun Exposure
  WindExposed,                            !- Wind Exposure
  ,                                       !- View Factor to Ground
  ,                                       !- Number of Vertices
  14.9320894720063, 7.46604473600313, 2.4384, !- X,Y,Z Vertex 1 {m}
  14.9320894720063, 7.46604473600313, 0,  !- X,Y,Z Vertex 2 {m}
  0, 7.46604473600313, 0,                 !- X,Y,Z Vertex 3 {m}
  0, 7.46604473600313, 2.4384;            !- X,Y,Z Vertex 4 {m}

OS:Surface,
  {75bd5456-13a6-4dac-abec-ff756ad63652}, !- Handle
  Surface 10,                             !- Name
  Wall,                                   !- Surface Type
  ,                                       !- Construction Name
  {b9661ddf-6911-4edf-91c0-3f813f185c06}, !- Space Name
  Outdoors,                               !- Outside Boundary Condition
  ,                                       !- Outside Boundary Condition Object
  SunExposed,                             !- Sun Exposure
  WindExposed,                            !- Wind Exposure
  ,                                       !- View Factor to Ground
  ,                                       !- Number of Vertices
  14.9320894720063, 6.096, 2.4384,        !- X,Y,Z Vertex 1 {m}
  14.9320894720063, 6.096, 0,             !- X,Y,Z Vertex 2 {m}
  14.9320894720063, 7.46604473600313, 0,  !- X,Y,Z Vertex 3 {m}
  14.9320894720063, 7.46604473600313, 2.4384; !- X,Y,Z Vertex 4 {m}

OS:Surface,
  {38d44c5c-5349-47e3-80f7-5a1ae8412f07}, !- Handle
  Surface 11,                             !- Name
  Wall,                                   !- Surface Type
  ,                                       !- Construction Name
  {b9661ddf-6911-4edf-91c0-3f813f185c06}, !- Space Name
  Surface,                                !- Outside Boundary Condition
  {38438176-0376-47c7-b5d6-d5369d1e9e6c}, !- Outside Boundary Condition Object
  NoSun,                                  !- Sun Exposure
  NoWind,                                 !- Wind Exposure
  ,                                       !- View Factor to Ground
  ,                                       !- Number of Vertices
  8.83608947200625, 6.096, 2.4384,        !- X,Y,Z Vertex 1 {m}
  8.83608947200625, 6.096, 0,             !- X,Y,Z Vertex 2 {m}
  14.9320894720063, 6.096, 0,             !- X,Y,Z Vertex 3 {m}
  14.9320894720063, 6.096, 2.4384;        !- X,Y,Z Vertex 4 {m}

OS:Surface,
  {7278b9c2-2eb4-4faf-8ee2-cace46a4367e}, !- Handle
  Surface 12,                             !- Name
  Wall,                                   !- Surface Type
  ,                                       !- Construction Name
  {b9661ddf-6911-4edf-91c0-3f813f185c06}, !- Space Name
  Surface,                                !- Outside Boundary Condition
  {d5e3f656-4411-4057-a4ac-0b0f52c23525}, !- Outside Boundary Condition Object
  NoSun,                                  !- Sun Exposure
  NoWind,                                 !- Wind Exposure
  ,                                       !- View Factor to Ground
  ,                                       !- Number of Vertices
  8.83608947200625, 0, 2.4384,            !- X,Y,Z Vertex 1 {m}
  8.83608947200625, 0, 0,                 !- X,Y,Z Vertex 2 {m}
  8.83608947200625, 6.096, 0,             !- X,Y,Z Vertex 3 {m}
  8.83608947200625, 6.096, 2.4384;        !- X,Y,Z Vertex 4 {m}

OS:Surface,
  {a6819183-470c-4de3-85d0-4d2912c9b8fd}, !- Handle
  Surface 13,                             !- Name
  Wall,                                   !- Surface Type
  ,                                       !- Construction Name
  {b9661ddf-6911-4edf-91c0-3f813f185c06}, !- Space Name
  Outdoors,                               !- Outside Boundary Condition
  ,                                       !- Outside Boundary Condition Object
  SunExposed,                             !- Sun Exposure
  WindExposed,                            !- Wind Exposure
  ,                                       !- View Factor to Ground
  ,                                       !- Number of Vertices
  0, 0, 2.4384,                           !- X,Y,Z Vertex 1 {m}
  0, 0, 0,                                !- X,Y,Z Vertex 2 {m}
  8.83608947200625, 0, 0,                 !- X,Y,Z Vertex 3 {m}
  8.83608947200625, 0, 2.4384;            !- X,Y,Z Vertex 4 {m}

OS:Surface,
  {33387d8c-9e48-4fa3-a153-52d3b82b0e64}, !- Handle
  Surface 14,                             !- Name
  RoofCeiling,                            !- Surface Type
  ,                                       !- Construction Name
  {b9661ddf-6911-4edf-91c0-3f813f185c06}, !- Space Name
  Surface,                                !- Outside Boundary Condition
  {60ab8d01-cc7b-425b-8a8b-6afb85b04c98}, !- Outside Boundary Condition Object
  NoSun,                                  !- Sun Exposure
  NoWind,                                 !- Wind Exposure
  ,                                       !- View Factor to Ground
  ,                                       !- Number of Vertices
  8.83608947200625, 0, 2.4384,            !- X,Y,Z Vertex 1 {m}
  8.83608947200625, 6.096, 2.4384,        !- X,Y,Z Vertex 2 {m}
  14.9320894720063, 6.096, 2.4384,        !- X,Y,Z Vertex 3 {m}
  14.9320894720063, 7.46604473600313, 2.4384, !- X,Y,Z Vertex 4 {m}
  0, 7.46604473600313, 2.4384,            !- X,Y,Z Vertex 5 {m}
  0, 0, 2.4384;                           !- X,Y,Z Vertex 6 {m}

OS:SpaceType,
  {7ce25b5b-1643-4e90-aeca-fecc94d234af}, !- Handle
  Space Type 2,                           !- Name
  ,                                       !- Default Construction Set Name
  ,                                       !- Default Schedule Set Name
  ,                                       !- Group Rendering Name
  ,                                       !- Design Specification Outdoor Air Object Name
  ,                                       !- Standards Template
  ,                                       !- Standards Building Type
  living;                                 !- Standards Space Type

OS:Space,
  {03413c75-6dd2-4449-a3a2-69a49afa1bb6}, !- Handle
  living space|story 2,                   !- Name
  {7ce25b5b-1643-4e90-aeca-fecc94d234af}, !- Space Type Name
  ,                                       !- Default Construction Set Name