!- NOTE: Auto-generated from /test/osw_files/SFD_HVACSizing_Equip_EF_AC2_Autosize.osw

OS:Version,
  {be583dfb-f33b-43e3-84b7-e3128ef6996a}, !- Handle
  2.8.1;                                  !- Version Identifier

OS:SimulationControl,
  {8b8d01e1-9fc8-47f9-a12e-dfc45043bf4e}, !- Handle
  ,                                       !- Do Zone Sizing Calculation
  ,                                       !- Do System Sizing Calculation
  ,                                       !- Do Plant Sizing Calculation
  No;                                     !- Run Simulation for Sizing Periods

OS:Timestep,
  {f688dd2e-f5a1-4a18-972b-efbaa343e7ed}, !- Handle
  6;                                      !- Number of Timesteps per Hour

OS:ShadowCalculation,
  {53d5fa73-553d-4781-805d-fc50ac2613da}, !- Handle
  20,                                     !- Calculation Frequency
  200;                                    !- Maximum Figures in Shadow Overlap Calculations

OS:SurfaceConvectionAlgorithm:Outside,
  {25e2da3d-2a18-4c36-9e79-6b0481ea3351}, !- Handle
  DOE-2;                                  !- Algorithm

OS:SurfaceConvectionAlgorithm:Inside,
  {59e8aeab-2a32-4f57-bfd2-b8f4a2a6887d}, !- Handle
  TARP;                                   !- Algorithm

OS:ZoneCapacitanceMultiplier:ResearchSpecial,
  {54d4c589-41b2-40a1-9da9-6c1527dd6005}, !- Handle
  ,                                       !- Temperature Capacity Multiplier
  15,                                     !- Humidity Capacity Multiplier
  ;                                       !- Carbon Dioxide Capacity Multiplier

OS:RunPeriod,
  {36ae6277-fc9d-434a-a4bb-0847e6646be3}, !- Handle
  Run Period 1,                           !- Name
  1,                                      !- Begin Month
  1,                                      !- Begin Day of Month
  12,                                     !- End Month
  31,                                     !- End Day of Month
  ,                                       !- Use Weather File Holidays and Special Days
  ,                                       !- Use Weather File Daylight Saving Period
  ,                                       !- Apply Weekend Holiday Rule
  ,                                       !- Use Weather File Rain Indicators
  ,                                       !- Use Weather File Snow Indicators
  ;                                       !- Number of Times Runperiod to be Repeated

OS:YearDescription,
  {44a91f4c-7a71-431f-9a65-59b200e833b9}, !- Handle
  2007,                                   !- Calendar Year
  ,                                       !- Day of Week for Start Day
  ;                                       !- Is Leap Year

OS:WeatherFile,
  {cbce364f-cc46-4b72-ab4c-616a8e6c6255}, !- Handle
  Denver Intl Ap,                         !- City
  CO,                                     !- State Province Region
  USA,                                    !- Country
  TMY3,                                   !- Data Source
  725650,                                 !- WMO Number
  39.83,                                  !- Latitude {deg}
  -104.65,                                !- Longitude {deg}
  -7,                                     !- Time Zone {hr}
  1650,                                   !- Elevation {m}
  file:../weather/USA_CO_Denver.Intl.AP.725650_TMY3.epw, !- Url
  E23378AA;                               !- Checksum

OS:AdditionalProperties,
  {9cb0e21b-cedf-4225-a06b-fd1a6bac1044}, !- Handle
  {cbce364f-cc46-4b72-ab4c-616a8e6c6255}, !- Object Name
  EPWHeaderCity,                          !- Feature Name 1
  String,                                 !- Feature Data Type 1
  Denver Intl Ap,                         !- Feature Value 1
  EPWHeaderState,                         !- Feature Name 2
  String,                                 !- Feature Data Type 2
  CO,                                     !- Feature Value 2
  EPWHeaderCountry,                       !- Feature Name 3
  String,                                 !- Feature Data Type 3
  USA,                                    !- Feature Value 3
  EPWHeaderDataSource,                    !- Feature Name 4
  String,                                 !- Feature Data Type 4
  TMY3,                                   !- Feature Value 4
  EPWHeaderStation,                       !- Feature Name 5
  String,                                 !- Feature Data Type 5
  725650,                                 !- Feature Value 5
  EPWHeaderLatitude,                      !- Feature Name 6
  Double,                                 !- Feature Data Type 6
  39.829999999999998,                     !- Feature Value 6
  EPWHeaderLongitude,                     !- Feature Name 7
  Double,                                 !- Feature Data Type 7
  -104.65000000000001,                    !- Feature Value 7
  EPWHeaderTimezone,                      !- Feature Name 8
  Double,                                 !- Feature Data Type 8
  -7,                                     !- Feature Value 8
  EPWHeaderAltitude,                      !- Feature Name 9
  Double,                                 !- Feature Data Type 9
  5413.3858267716532,                     !- Feature Value 9
  EPWHeaderLocalPressure,                 !- Feature Name 10
  Double,                                 !- Feature Data Type 10
  0.81937567683596546,                    !- Feature Value 10
  EPWHeaderRecordsPerHour,                !- Feature Name 11
  Double,                                 !- Feature Data Type 11
  0,                                      !- Feature Value 11
  EPWDataAnnualAvgDrybulb,                !- Feature Name 12
  Double,                                 !- Feature Data Type 12
  51.575616438356228,                     !- Feature Value 12
  EPWDataAnnualMinDrybulb,                !- Feature Name 13
  Double,                                 !- Feature Data Type 13
  -2.9200000000000017,                    !- Feature Value 13
  EPWDataAnnualMaxDrybulb,                !- Feature Name 14
  Double,                                 !- Feature Data Type 14
  104,                                    !- Feature Value 14
  EPWDataCDD50F,                          !- Feature Name 15
  Double,                                 !- Feature Data Type 15
  3072.2925000000005,                     !- Feature Value 15
  EPWDataCDD65F,                          !- Feature Name 16
  Double,                                 !- Feature Data Type 16
  883.62000000000035,                     !- Feature Value 16
  EPWDataHDD50F,                          !- Feature Name 17
  Double,                                 !- Feature Data Type 17
  2497.1925000000001,                     !- Feature Value 17
  EPWDataHDD65F,                          !- Feature Name 18
  Double,                                 !- Feature Data Type 18
  5783.5200000000013,                     !- Feature Value 18
  EPWDataAnnualAvgWindspeed,              !- Feature Name 19
  Double,                                 !- Feature Data Type 19
  3.9165296803649667,                     !- Feature Value 19
  EPWDataMonthlyAvgDrybulbs,              !- Feature Name 20
  String,                                 !- Feature Data Type 20
  33.4191935483871&#4431.90142857142857&#4443.02620967741937&#4442.48624999999999&#4459.877741935483854&#4473.57574999999997&#4472.07975806451608&#4472.70008064516134&#4466.49200000000006&#4450.079112903225806&#4437.218250000000005&#4434.582177419354835, !- Feature Value 20
  EPWDataGroundMonthlyTemps,              !- Feature Name 21
  String,                                 !- Feature Data Type 21
  44.08306285945173&#4440.89570904991865&#4440.64045432632048&#4442.153016571250646&#4448.225111118704206&#4454.268919273837525&#4459.508577937551024&#4462.82777283423508&#4463.10975667174995&#4460.41014950381947&#4455.304105212311526&#4449.445696474514364, !- Feature Value 21
  EPWDataWSF,                             !- Feature Name 22
  Double,                                 !- Feature Data Type 22
  0.58999999999999997,                    !- Feature Value 22
  EPWDataMonthlyAvgDailyHighDrybulbs,     !- Feature Name 23
  String,                                 !- Feature Data Type 23
  47.41032258064516&#4446.58642857142857&#4455.15032258064517&#4453.708&#4472.80193548387098&#4488.67600000000002&#4486.1858064516129&#4485.87225806451613&#4482.082&#4463.18064516129033&#4448.73400000000001&#4448.87935483870968, !- Feature Value 23
  EPWDataMonthlyAvgDailyLowDrybulbs,      !- Feature Name 24
  String,                                 !- Feature Data Type 24
  19.347741935483874&#4419.856428571428573&#4430.316129032258065&#4431.112&#4447.41612903225806&#4457.901999999999994&#4459.063870967741934&#4460.956774193548384&#4452.352000000000004&#4438.41612903225806&#4427.002000000000002&#4423.02903225806451, !- Feature Value 24
  EPWDesignHeatingDrybulb,                !- Feature Name 25
  Double,                                 !- Feature Data Type 25
  12.02,                                  !- Feature Value 25
  EPWDesignHeatingWindspeed,              !- Feature Name 26
  Double,                                 !- Feature Data Type 26
  2.8062500000000004,                     !- Feature Value 26
  EPWDesignCoolingDrybulb,                !- Feature Name 27
  Double,                                 !- Feature Data Type 27
  91.939999999999998,                     !- Feature Value 27
  EPWDesignCoolingWetbulb,                !- Feature Name 28
  Double,                                 !- Feature Data Type 28
  59.95131430195849,                      !- Feature Value 28
  EPWDesignCoolingHumidityRatio,          !- Feature Name 29
  Double,                                 !- Feature Data Type 29
  0.0059161086834698092,                  !- Feature Value 29
  EPWDesignCoolingWindspeed,              !- Feature Name 30
  Double,                                 !- Feature Data Type 30
  3.7999999999999989,                     !- Feature Value 30
  EPWDesignDailyTemperatureRange,         !- Feature Name 31
  Double,                                 !- Feature Data Type 31
  24.915483870967748,                     !- Feature Value 31
  EPWDesignDehumidDrybulb,                !- Feature Name 32
  Double,                                 !- Feature Data Type 32
  67.996785714285721,                     !- Feature Value 32
  EPWDesignDehumidHumidityRatio,          !- Feature Name 33
  Double,                                 !- Feature Data Type 33
  0.012133744170488724,                   !- Feature Value 33
  EPWDesignCoolingDirectNormal,           !- Feature Name 34
  Double,                                 !- Feature Data Type 34
  985,                                    !- Feature Value 34
  EPWDesignCoolingDiffuseHorizontal,      !- Feature Name 35
  Double,                                 !- Feature Data Type 35
  84;                                     !- Feature Value 35

OS:Site,
  {4fafc389-48a4-448a-bae8-ed5f0fc40c79}, !- Handle
  Denver Intl Ap_CO_USA,                  !- Name
  39.83,                                  !- Latitude {deg}
  -104.65,                                !- Longitude {deg}
  -7,                                     !- Time Zone {hr}
  1650,                                   !- Elevation {m}
  Suburbs;                                !- Terrain

OS:ClimateZones,
  {6eaec9ef-2289-4674-ad03-2b0e1f9599a8}, !- Handle
  ,                                       !- Active Institution
  ,                                       !- Active Year
  ,                                       !- Climate Zone Institution Name 1
  ,                                       !- Climate Zone Document Name 1
  ,                                       !- Climate Zone Document Year 1
  ,                                       !- Climate Zone Value 1
  Building America,                       !- Climate Zone Institution Name 2
  ,                                       !- Climate Zone Document Name 2
  0,                                      !- Climate Zone Document Year 2
  Cold;                                   !- Climate Zone Value 2

OS:Site:WaterMainsTemperature,
  {627bd98d-a3af-43c8-80ac-9dd7bd89bbb8}, !- Handle
  Correlation,                            !- Calculation Method
  ,                                       !- Temperature Schedule Name
  10.8753424657535,                       !- Annual Average Outdoor Air Temperature {C}
  23.1524007936508;                       !- Maximum Difference In Monthly Average Outdoor Air Temperatures {deltaC}

OS:RunPeriodControl:DaylightSavingTime,
  {2d46016b-fc7b-4dfe-8217-a7655aca6153}, !- Handle
  4/7,                                    !- Start Date
  10/26;                                  !- End Date

OS:Site:GroundTemperature:Deep,
  {d1b1ab9d-6816-46a7-957b-7913cd059870}, !- Handle
  10.8753424657535,                       !- January Deep Ground Temperature {C}
  10.8753424657535,                       !- February Deep Ground Temperature {C}
  10.8753424657535,                       !- March Deep Ground Temperature {C}
  10.8753424657535,                       !- April Deep Ground Temperature {C}
  10.8753424657535,                       !- May Deep Ground Temperature {C}
  10.8753424657535,                       !- June Deep Ground Temperature {C}
  10.8753424657535,                       !- July Deep Ground Temperature {C}
  10.8753424657535,                       !- August Deep Ground Temperature {C}
  10.8753424657535,                       !- September Deep Ground Temperature {C}
  10.8753424657535,                       !- October Deep Ground Temperature {C}
  10.8753424657535,                       !- November Deep Ground Temperature {C}
  10.8753424657535;                       !- December Deep Ground Temperature {C}

OS:ThermalZone,
  {b4a68caf-d22f-4fb6-8d9b-4dde0fcb736d}, !- Handle
  living zone,                            !- Name
  ,                                       !- Multiplier
  ,                                       !- Ceiling Height {m}
  ,                                       !- Volume {m3}
  ,                                       !- Floor Area {m2}
  ,                                       !- Zone Inside Convection Algorithm
  ,                                       !- Zone Outside Convection Algorithm
  ,                                       !- Zone Conditioning Equipment List Name
  {c470ad2e-5d08-4520-aa36-93d397a4e4e6}, !- Zone Air Inlet Port List
  {57909f00-c705-47bd-93be-fcc751f4a6c9}, !- Zone Air Exhaust Port List
  {e42448c8-d176-40e0-aba1-25e736db0af5}, !- Zone Air Node Name
  {a66b4a4b-b547-4d1d-bc85-44c5f5e7ea6b}, !- Zone Return Air Port List
  ,                                       !- Primary Daylighting Control Name
  ,                                       !- Fraction of Zone Controlled by Primary Daylighting Control
  ,                                       !- Secondary Daylighting Control Name
  ,                                       !- Fraction of Zone Controlled by Secondary Daylighting Control
  ,                                       !- Illuminance Map Name
  ,                                       !- Group Rendering Name
  {f7d5b79c-2074-441b-946a-c901069f5e9f}, !- Thermostat Name
  No;                                     !- Use Ideal Air Loads

OS:Node,
  {d1cc5eca-6158-468a-9cf3-e5e30b14ac74}, !- Handle
  Node 1,                                 !- Name
  {e42448c8-d176-40e0-aba1-25e736db0af5}, !- Inlet Port
  ;                                       !- Outlet Port

OS:Connection,
  {e42448c8-d176-40e0-aba1-25e736db0af5}, !- Handle
  {c6a9db4d-3a3d-4a2e-9449-c3884e5016be}, !- Name
  {b4a68caf-d22f-4fb6-8d9b-4dde0fcb736d}, !- Source Object
  11,                                     !- Outlet Port
  {d1cc5eca-6158-468a-9cf3-e5e30b14ac74}, !- Target Object
  2;                                      !- Inlet Port

OS:PortList,
  {c470ad2e-5d08-4520-aa36-93d397a4e4e6}, !- Handle
  {53c5c5f2-0ea3-476a-9112-2ecb65c44c42}, !- Name
  {b4a68caf-d22f-4fb6-8d9b-4dde0fcb736d}, !- HVAC Component
  {97a8b5e6-3afd-42b4-b331-72974f67ece5}, !- Port 1
  {abab74c5-4bde-4fe0-97bf-d7fbf2fd2db4}; !- Port 2

OS:PortList,
  {57909f00-c705-47bd-93be-fcc751f4a6c9}, !- Handle
  {2b3ec773-a335-4bb1-8851-9d95a9096932}, !- Name
  {b4a68caf-d22f-4fb6-8d9b-4dde0fcb736d}; !- HVAC Component

OS:PortList,
  {a66b4a4b-b547-4d1d-bc85-44c5f5e7ea6b}, !- Handle
  {68068111-160e-4f30-951e-700cdf366441}, !- Name
  {b4a68caf-d22f-4fb6-8d9b-4dde0fcb736d}, !- HVAC Component
  {3043db70-b26d-4cb3-b99a-eb53d51299be}, !- Port 1
  {954844cc-d47b-4555-a375-8fcd2adb4037}; !- Port 2

OS:Sizing:Zone,
  {686a3dfb-0ca7-4673-8afb-a2d2f644fd75}, !- Handle
  {b4a68caf-d22f-4fb6-8d9b-4dde0fcb736d}, !- Zone or ZoneList Name
  SupplyAirTemperature,                   !- Zone Cooling Design Supply Air Temperature Input Method
  14,                                     !- Zone Cooling Design Supply Air Temperature {C}
  11.11,                                  !- Zone Cooling Design Supply Air Temperature Difference {deltaC}
  SupplyAirTemperature,                   !- Zone Heating Design Supply Air Temperature Input Method
  40,                                     !- Zone Heating Design Supply Air Temperature {C}
  11.11,                                  !- Zone Heating Design Supply Air Temperature Difference {deltaC}
  0.0085,                                 !- Zone Cooling Design Supply Air Humidity Ratio {kg-H2O/kg-air}
  0.008,                                  !- Zone Heating Design Supply Air Humidity Ratio {kg-H2O/kg-air}
  ,                                       !- Zone Heating Sizing Factor
  ,                                       !- Zone Cooling Sizing Factor
  DesignDay,                              !- Cooling Design Air Flow Method
  ,                                       !- Cooling Design Air Flow Rate {m3/s}
  ,                                       !- Cooling Minimum Air Flow per Zone Floor Area {m3/s-m2}
  ,                                       !- Cooling Minimum Air Flow {m3/s}
  ,                                       !- Cooling Minimum Air Flow Fraction
  DesignDay,                              !- Heating Design Air Flow Method
  ,                                       !- Heating Design Air Flow Rate {m3/s}
  ,                                       !- Heating Maximum Air Flow per Zone Floor Area {m3/s-m2}
  ,                                       !- Heating Maximum Air Flow {m3/s}
  ,                                       !- Heating Maximum Air Flow Fraction
  ,                                       !- Design Zone Air Distribution Effectiveness in Cooling Mode
  ,                                       !- Design Zone Air Distribution Effectiveness in Heating Mode
  No,                                     !- Account for Dedicated Outdoor Air System
  NeutralSupplyAir,                       !- Dedicated Outdoor Air System Control Strategy
  autosize,                               !- Dedicated Outdoor Air Low Setpoint Temperature for Design {C}
  autosize;                               !- Dedicated Outdoor Air High Setpoint Temperature for Design {C}

OS:ZoneHVAC:EquipmentList,
  {590e41e6-4db2-48e5-8b91-1ceae1341542}, !- Handle
  Zone HVAC Equipment List 1,             !- Name
  {b4a68caf-d22f-4fb6-8d9b-4dde0fcb736d}, !- Thermal Zone
  SequentialLoad,                         !- Load Distribution Scheme
  {9c6b02c1-78a6-4c30-a75f-2a9d7495e6af}, !- Zone Equipment 1
  1,                                      !- Zone Equipment Cooling Sequence 1
  1,                                      !- Zone Equipment Heating or No-Load Sequence 1
  ,                                       !- Zone Equipment Sequential Cooling Fraction 1
  ,                                       !- Zone Equipment Sequential Heating Fraction 1
  {d917bed9-ed80-4968-84e8-4acfdad2f07c}, !- Zone Equipment 2
  2,                                      !- Zone Equipment Cooling Sequence 2
  2,                                      !- Zone Equipment Heating or No-Load Sequence 2
  ,                                       !- Zone Equipment Sequential Cooling Fraction 2
  ;                                       !- Zone Equipment Sequential Heating Fraction 2

OS:ThermalZone,
  {126ec017-f07a-486b-8d6d-0835af3658a6}, !- Handle
  garage zone,                            !- Name
  ,                                       !- Multiplier
  ,                                       !- Ceiling Height {m}
  ,                                       !- Volume {m3}
  ,                                       !- Floor Area {m2}
  ,                                       !- Zone Inside Convection Algorithm
  ,                                       !- Zone Outside Convection Algorithm
  ,                                       !- Zone Conditioning Equipment List Name
  {bacf405b-30ff-4078-8bb0-a3a22a6afe72}, !- Zone Air Inlet Port List
  {ad2ab3b7-96cd-486a-84f1-0c505174881d}, !- Zone Air Exhaust Port List
  {fceeda0e-a5d2-4bda-9de7-7476c2f96690}, !- Zone Air Node Name
  {fa3655a6-c170-428b-9398-8157b1c82b77}, !- Zone Return Air Port List
  ,                                       !- Primary Daylighting Control Name
  ,                                       !- Fraction of Zone Controlled by Primary Daylighting Control
  ,                                       !- Secondary Daylighting Control Name
  ,                                       !- Fraction of Zone Controlled by Secondary Daylighting Control
  ,                                       !- Illuminance Map Name
  ,                                       !- Group Rendering Name
  ,                                       !- Thermostat Name
  No;                                     !- Use Ideal Air Loads

OS:Node,
  {b895fa5a-bd11-406f-a187-d600767d6e08}, !- Handle
  Node 2,                                 !- Name
  {fceeda0e-a5d2-4bda-9de7-7476c2f96690}, !- Inlet Port
  ;                                       !- Outlet Port

OS:Connection,
  {fceeda0e-a5d2-4bda-9de7-7476c2f96690}, !- Handle
  {8386c5db-6311-4d94-ab5a-a7c852209d68}, !- Name
  {126ec017-f07a-486b-8d6d-0835af3658a6}, !- Source Object
  11,                                     !- Outlet Port
  {b895fa5a-bd11-406f-a187-d600767d6e08}, !- Target Object
  2;                                      !- Inlet Port

OS:PortList,
  {bacf405b-30ff-4078-8bb0-a3a22a6afe72}, !- Handle
  {0215efcd-8087-47b9-afa6-8f5ab83b1afa}, !- Name
  {126ec017-f07a-486b-8d6d-0835af3658a6}; !- HVAC Component

OS:PortList,
  {ad2ab3b7-96cd-486a-84f1-0c505174881d}, !- Handle
  {b3ee62e9-242d-4fe0-8e8b-142db4928381}, !- Name
  {126ec017-f07a-486b-8d6d-0835af3658a6}; !- HVAC Component

OS:PortList,
  {fa3655a6-c170-428b-9398-8157b1c82b77}, !- Handle
  {063bbde8-06cb-4fd1-bb6e-cddd1e8cf0f0}, !- Name
  {126ec017-f07a-486b-8d6d-0835af3658a6}; !- HVAC Component

OS:Sizing:Zone,
  {a655a45b-31d8-43c7-8a8d-c6a513b5ce34}, !- Handle
  {126ec017-f07a-486b-8d6d-0835af3658a6}, !- Zone or ZoneList Name
  SupplyAirTemperature,                   !- Zone Cooling Design Supply Air Temperature Input Method
  14,                                     !- Zone Cooling Design Supply Air Temperature {C}
  11.11,                                  !- Zone Cooling Design Supply Air Temperature Difference {deltaC}
  SupplyAirTemperature,                   !- Zone Heating Design Supply Air Temperature Input Method
  40,                                     !- Zone Heating Design Supply Air Temperature {C}
  11.11,                                  !- Zone Heating Design Supply Air Temperature Difference {deltaC}
  0.0085,                                 !- Zone Cooling Design Supply Air Humidity Ratio {kg-H2O/kg-air}
  0.008,                                  !- Zone Heating Design Supply Air Humidity Ratio {kg-H2O/kg-air}
  ,                                       !- Zone Heating Sizing Factor
  ,                                       !- Zone Cooling Sizing Factor
  DesignDay,                              !- Cooling Design Air Flow Method
  ,                                       !- Cooling Design Air Flow Rate {m3/s}
  ,                                       !- Cooling Minimum Air Flow per Zone Floor Area {m3/s-m2}
  ,                                       !- Cooling Minimum Air Flow {m3/s}
  ,                                       !- Cooling Minimum Air Flow Fraction
  DesignDay,                              !- Heating Design Air Flow Method
  ,                                       !- Heating Design Air Flow Rate {m3/s}
  ,                                       !- Heating Maximum Air Flow per Zone Floor Area {m3/s-m2}
  ,                                       !- Heating Maximum Air Flow {m3/s}
  ,                                       !- Heating Maximum Air Flow Fraction
  ,                                       !- Design Zone Air Distribution Effectiveness in Cooling Mode
  ,                                       !- Design Zone Air Distribution Effectiveness in Heating Mode
  No,                                     !- Account for Dedicated Outdoor Air System
  NeutralSupplyAir,                       !- Dedicated Outdoor Air System Control Strategy
  autosize,                               !- Dedicated Outdoor Air Low Setpoint Temperature for Design {C}
  autosize;                               !- Dedicated Outdoor Air High Setpoint Temperature for Design {C}

OS:ZoneHVAC:EquipmentList,
  {890acf71-b7a3-4b33-92f3-608321bedd4b}, !- Handle
  Zone HVAC Equipment List 2,             !- Name
  {126ec017-f07a-486b-8d6d-0835af3658a6}; !- Thermal Zone

OS:Space,
  {bed40068-09c8-4f8a-8c5a-0620928422ea}, !- Handle
  garage space,                           !- Name
  {fb7ea518-05e0-4dc7-a6bd-69dcdf6efe1a}, !- Space Type Name
  ,                                       !- Default Construction Set Name
  ,                                       !- Default Schedule Set Name
  -0,                                     !- Direction of Relative North {deg}
  0,                                      !- X Origin {m}
  0,                                      !- Y Origin {m}
  0,                                      !- Z Origin {m}
  ,                                       !- Building Story Name
  {126ec017-f07a-486b-8d6d-0835af3658a6}; !- Thermal Zone Name

OS:Surface,
  {00919476-9ea6-4190-a0d2-20faffda2166}, !- Handle
  Surface 1,                              !- Name
  Floor,                                  !- Surface Type
  {664f60b7-4b6e-4b72-ac8c-ae786ed30d92}, !- Construction Name
  {bed40068-09c8-4f8a-8c5a-0620928422ea}, !- Space Name
  Foundation,                             !- Outside Boundary Condition
  {e57449e4-383a-4a91-a130-cf45fd0599df}, !- Outside Boundary Condition Object
  NoSun,                                  !- Sun Exposure
  NoWind,                                 !- Wind Exposure
  ,                                       !- View Factor to Ground
  ,                                       !- Number of Vertices
  8.91701625975123, -3.048, 0,            !- X,Y,Z Vertex 1 {m}
  8.91701625975123, 3.048, 0,             !- X,Y,Z Vertex 2 {m}
  12.5746162597512, 3.048, 0,             !- X,Y,Z Vertex 3 {m}
  12.5746162597512, -3.048, 0;            !- X,Y,Z Vertex 4 {m}

OS:Surface,
  {e57a48de-ca12-49ae-af79-c0e30fe5aa68}, !- Handle
  Surface 2,                              !- Name
  Wall,                                   !- Surface Type
  {33a14575-bea4-48f7-bae7-fe4198d999fe}, !- Construction Name
  {bed40068-09c8-4f8a-8c5a-0620928422ea}, !- Space Name
  Surface,                                !- Outside Boundary Condition
  {4d4a6111-7210-45ca-be05-e07b8c6d1d62}, !- Outside Boundary Condition Object
  NoSun,                                  !- Sun Exposure
  NoWind,                                 !- Wind Exposure
  ,                                       !- View Factor to Ground
  ,                                       !- Number of Vertices
  8.91701625975123, 3.048, 2.4384,        !- X,Y,Z Vertex 1 {m}
  8.91701625975123, 3.048, 0,             !- X,Y,Z Vertex 2 {m}
  8.91701625975123, 0, 0,                 !- X,Y,Z Vertex 3 {m}
  8.91701625975123, 0, 2.4384;            !- X,Y,Z Vertex 4 {m}

OS:Surface,
  {89ad1211-7094-49ff-a82b-6d2980dbfd43}, !- Handle
  Surface 3,                              !- Name
  Wall,                                   !- Surface Type
  {33a14575-bea4-48f7-bae7-fe4198d999fe}, !- Construction Name
  {bed40068-09c8-4f8a-8c5a-0620928422ea}, !- Space Name
  Surface,                                !- Outside Boundary Condition
  {d3185d90-6844-4332-befb-4313952631cd}, !- Outside Boundary Condition Object
  NoSun,                                  !- Sun Exposure
  NoWind,                                 !- Wind Exposure
  ,                                       !- View Factor to Ground
  ,                                       !- Number of Vertices
  12.5746162597512, 3.048, 2.4384,        !- X,Y,Z Vertex 1 {m}
  12.5746162597512, 3.048, 0,             !- X,Y,Z Vertex 2 {m}
  8.91701625975123, 3.048, 0,             !- X,Y,Z Vertex 3 {m}
  8.91701625975123, 3.048, 2.4384;        !- X,Y,Z Vertex 4 {m}

OS:Surface,
  {f96e3705-ae96-4c32-b2ca-919521c629ab}, !- Handle
  Surface 4,                              !- Name
  Wall,                                   !- Surface Type
  {fb8db7c7-9061-462b-bac7-f1e929ba16b4}, !- Construction Name
  {bed40068-09c8-4f8a-8c5a-0620928422ea}, !- Space Name
  Outdoors,                               !- Outside Boundary Condition
  ,                                       !- Outside Boundary Condition Object
  SunExposed,                             !- Sun Exposure
  WindExposed,                            !- Wind Exposure
  ,                                       !- View Factor to Ground
  ,                                       !- Number of Vertices
  12.5746162597512, -3.048, 2.4384,       !- X,Y,Z Vertex 1 {m}
  12.5746162597512, -3.048, 0,            !- X,Y,Z Vertex 2 {m}
  12.5746162597512, 3.048, 0,             !- X,Y,Z Vertex 3 {m}