!- NOTE: Auto-generated from /test/osw_files/SFD_70heat_75cool_12mo_seasons_FB.osw

OS:Version,
  {72096688-82e8-4eac-877c-37f68e57dee9}, !- Handle
  2.9.1;                                  !- Version Identifier

OS:SimulationControl,
  {eb944d5c-4e37-442f-b9ec-a453475ead42}, !- Handle
  ,                                       !- Do Zone Sizing Calculation
  ,                                       !- Do System Sizing Calculation
  ,                                       !- Do Plant Sizing Calculation
  No;                                     !- Run Simulation for Sizing Periods

OS:Timestep,
  {84a398a1-9161-4bec-beec-623b535c2d22}, !- Handle
  6;                                      !- Number of Timesteps per Hour

OS:ShadowCalculation,
  {02c36de1-16e8-4ccc-9bc3-7798828e1bf5}, !- Handle
  20,                                     !- Calculation Frequency
  200;                                    !- Maximum Figures in Shadow Overlap Calculations

OS:SurfaceConvectionAlgorithm:Outside,
  {0634e6e4-cb00-4036-acb5-40004685874b}, !- Handle
  DOE-2;                                  !- Algorithm

OS:SurfaceConvectionAlgorithm:Inside,
  {14eda635-6456-47aa-8058-7d1ae33aa3e8}, !- Handle
  TARP;                                   !- Algorithm

OS:ZoneCapacitanceMultiplier:ResearchSpecial,
  {47e39115-f5cc-4eee-81e2-5d7e4f7b1ab2}, !- Handle
  ,                                       !- Temperature Capacity Multiplier
  15,                                     !- Humidity Capacity Multiplier
  ;                                       !- Carbon Dioxide Capacity Multiplier

OS:RunPeriod,
  {3dc116f1-76fc-454c-9a01-cc8819d5c6d9}, !- Handle
  Run Period 1,                           !- Name
  1,                                      !- Begin Month
  1,                                      !- Begin Day of Month
  12,                                     !- End Month
  31,                                     !- End Day of Month
  ,                                       !- Use Weather File Holidays and Special Days
  ,                                       !- Use Weather File Daylight Saving Period
  ,                                       !- Apply Weekend Holiday Rule
  ,                                       !- Use Weather File Rain Indicators
  ,                                       !- Use Weather File Snow Indicators
  ;                                       !- Number of Times Runperiod to be Repeated

OS:YearDescription,
  {dd9e4499-3207-49ff-9545-9c309be2ab95}, !- Handle
  2007,                                   !- Calendar Year
  ,                                       !- Day of Week for Start Day
  ;                                       !- Is Leap Year

OS:ThermalZone,
  {a4e58796-b0b0-4350-bfd2-5ac830e35aff}, !- Handle
  living zone,                            !- Name
  ,                                       !- Multiplier
  ,                                       !- Ceiling Height {m}
  ,                                       !- Volume {m3}
  ,                                       !- Floor Area {m2}
  ,                                       !- Zone Inside Convection Algorithm
  ,                                       !- Zone Outside Convection Algorithm
  ,                                       !- Zone Conditioning Equipment List Name
  {fd5f8deb-4d4e-4d33-b781-12b0237716d9}, !- Zone Air Inlet Port List
  {a2711e7d-af25-4acf-80bb-9a09d06ccc37}, !- Zone Air Exhaust Port List
  {6f52f513-eccb-4165-a140-0f5258eba172}, !- Zone Air Node Name
  {b0c32965-21cc-4de1-9364-be926bc2add9}, !- Zone Return Air Port List
  ,                                       !- Primary Daylighting Control Name
  ,                                       !- Fraction of Zone Controlled by Primary Daylighting Control
  ,                                       !- Secondary Daylighting Control Name
  ,                                       !- Fraction of Zone Controlled by Secondary Daylighting Control
  ,                                       !- Illuminance Map Name
  ,                                       !- Group Rendering Name
  {4e89c518-ee22-4433-b5b1-0b5417a9c3a5}, !- Thermostat Name
  No;                                     !- Use Ideal Air Loads

OS:Node,
  {012764c2-e4d1-4908-aa79-c6668fb545bb}, !- Handle
  Node 1,                                 !- Name
  {6f52f513-eccb-4165-a140-0f5258eba172}, !- Inlet Port
  ;                                       !- Outlet Port

OS:Connection,
  {6f52f513-eccb-4165-a140-0f5258eba172}, !- Handle
  {c8041249-0bf5-4351-89c7-707911e8b004}, !- Name
  {a4e58796-b0b0-4350-bfd2-5ac830e35aff}, !- Source Object
  11,                                     !- Outlet Port
  {012764c2-e4d1-4908-aa79-c6668fb545bb}, !- Target Object
  2;                                      !- Inlet Port

OS:PortList,
  {fd5f8deb-4d4e-4d33-b781-12b0237716d9}, !- Handle
  {07ce4054-3d16-491a-99e9-ec0fe016a38e}, !- Name
  {a4e58796-b0b0-4350-bfd2-5ac830e35aff}, !- HVAC Component
  {17bb4346-606e-4c04-9834-83f67a6b0295}, !- Port 1
  {8aeb2105-5f8a-4b36-a014-6c6c50b8d513}; !- Port 2

OS:PortList,
  {a2711e7d-af25-4acf-80bb-9a09d06ccc37}, !- Handle
  {ac175f96-0a39-41e2-9c58-00a97726596e}, !- Name
  {a4e58796-b0b0-4350-bfd2-5ac830e35aff}; !- HVAC Component

OS:PortList,
  {b0c32965-21cc-4de1-9364-be926bc2add9}, !- Handle
  {36fe0fdb-d412-43d8-9686-7e42f33db26b}, !- Name
  {a4e58796-b0b0-4350-bfd2-5ac830e35aff}, !- HVAC Component
  {7a10f320-fca7-4aa1-a86d-87124f8ff3dc}, !- Port 1
  {237b8197-7a0b-461c-948e-7569c7470eb9}; !- Port 2

OS:Sizing:Zone,
  {229b46ed-579c-43c9-ab26-01b464898754}, !- Handle
  {a4e58796-b0b0-4350-bfd2-5ac830e35aff}, !- Zone or ZoneList Name
  SupplyAirTemperature,                   !- Zone Cooling Design Supply Air Temperature Input Method
  14,                                     !- Zone Cooling Design Supply Air Temperature {C}
  11.11,                                  !- Zone Cooling Design Supply Air Temperature Difference {deltaC}
  SupplyAirTemperature,                   !- Zone Heating Design Supply Air Temperature Input Method
  40,                                     !- Zone Heating Design Supply Air Temperature {C}
  11.11,                                  !- Zone Heating Design Supply Air Temperature Difference {deltaC}
  0.0085,                                 !- Zone Cooling Design Supply Air Humidity Ratio {kg-H2O/kg-air}
  0.008,                                  !- Zone Heating Design Supply Air Humidity Ratio {kg-H2O/kg-air}
  ,                                       !- Zone Heating Sizing Factor
  ,                                       !- Zone Cooling Sizing Factor
  DesignDay,                              !- Cooling Design Air Flow Method
  ,                                       !- Cooling Design Air Flow Rate {m3/s}
  ,                                       !- Cooling Minimum Air Flow per Zone Floor Area {m3/s-m2}
  ,                                       !- Cooling Minimum Air Flow {m3/s}
  ,                                       !- Cooling Minimum Air Flow Fraction
  DesignDay,                              !- Heating Design Air Flow Method
  ,                                       !- Heating Design Air Flow Rate {m3/s}
  ,                                       !- Heating Maximum Air Flow per Zone Floor Area {m3/s-m2}
  ,                                       !- Heating Maximum Air Flow {m3/s}
  ,                                       !- Heating Maximum Air Flow Fraction
  ,                                       !- Design Zone Air Distribution Effectiveness in Cooling Mode
  ,                                       !- Design Zone Air Distribution Effectiveness in Heating Mode
  No,                                     !- Account for Dedicated Outdoor Air System
  NeutralSupplyAir,                       !- Dedicated Outdoor Air System Control Strategy
  autosize,                               !- Dedicated Outdoor Air Low Setpoint Temperature for Design {C}
  autosize;                               !- Dedicated Outdoor Air High Setpoint Temperature for Design {C}

OS:ZoneHVAC:EquipmentList,
  {0125add3-accd-45b5-be75-e1444b316977}, !- Handle
  Zone HVAC Equipment List 1,             !- Name
  {a4e58796-b0b0-4350-bfd2-5ac830e35aff}, !- Thermal Zone
  SequentialLoad,                         !- Load Distribution Scheme
  {6f23d5f8-a1c9-473c-bf98-42e058cc6d5d}, !- Zone Equipment 1
  1,                                      !- Zone Equipment Cooling Sequence 1
  1,                                      !- Zone Equipment Heating or No-Load Sequence 1
  ,                                       !- Zone Equipment Sequential Cooling Fraction Schedule Name 1
  ,                                       !- Zone Equipment Sequential Heating Fraction Schedule Name 1
  {ada7d6ca-bc8a-4f76-a660-68e98cd965c6}, !- Zone Equipment 2
  2,                                      !- Zone Equipment Cooling Sequence 2
  2,                                      !- Zone Equipment Heating or No-Load Sequence 2
  ,                                       !- Zone Equipment Sequential Cooling Fraction Schedule Name 2
  ;                                       !- Zone Equipment Sequential Heating Fraction Schedule Name 2

OS:ThermalZone,
  {552945aa-b00a-4289-bbba-7512d461afa6}, !- Handle
  garage zone,                            !- Name
  ,                                       !- Multiplier
  ,                                       !- Ceiling Height {m}
  ,                                       !- Volume {m3}
  ,                                       !- Floor Area {m2}
  ,                                       !- Zone Inside Convection Algorithm
  ,                                       !- Zone Outside Convection Algorithm
  ,                                       !- Zone Conditioning Equipment List Name
  {3f879613-f434-454e-ad35-5a96d01e3b37}, !- Zone Air Inlet Port List
  {a19b15f6-4dd1-4c71-a0e1-2c1cd68470d1}, !- Zone Air Exhaust Port List
  {44cb908a-9687-453c-b45f-f6bdc68b0fac}, !- Zone Air Node Name
  {7f22da14-ffbd-450e-9352-893205bd9ccd}, !- Zone Return Air Port List
  ,                                       !- Primary Daylighting Control Name
  ,                                       !- Fraction of Zone Controlled by Primary Daylighting Control
  ,                                       !- Secondary Daylighting Control Name
  ,                                       !- Fraction of Zone Controlled by Secondary Daylighting Control
  ,                                       !- Illuminance Map Name
  ,                                       !- Group Rendering Name
  ,                                       !- Thermostat Name
  No;                                     !- Use Ideal Air Loads

OS:Node,
  {b34ec9df-6cb8-420a-8031-b37d9be2cd6f}, !- Handle
  Node 2,                                 !- Name
  {44cb908a-9687-453c-b45f-f6bdc68b0fac}, !- Inlet Port
  ;                                       !- Outlet Port

OS:Connection,
  {44cb908a-9687-453c-b45f-f6bdc68b0fac}, !- Handle
  {81a34796-8890-452a-a351-6011c667e093}, !- Name
  {552945aa-b00a-4289-bbba-7512d461afa6}, !- Source Object
  11,                                     !- Outlet Port
  {b34ec9df-6cb8-420a-8031-b37d9be2cd6f}, !- Target Object
  2;                                      !- Inlet Port

OS:PortList,
  {3f879613-f434-454e-ad35-5a96d01e3b37}, !- Handle
  {40e46aa2-a9a3-4509-9fb1-49d76452c85c}, !- Name
  {552945aa-b00a-4289-bbba-7512d461afa6}; !- HVAC Component

OS:PortList,
  {a19b15f6-4dd1-4c71-a0e1-2c1cd68470d1}, !- Handle
  {53585958-b0ed-4f4b-a168-95cd641c6731}, !- Name
  {552945aa-b00a-4289-bbba-7512d461afa6}; !- HVAC Component

OS:PortList,
  {7f22da14-ffbd-450e-9352-893205bd9ccd}, !- Handle
  {4a603a22-1d94-47b0-881a-cddab96c295e}, !- Name
  {552945aa-b00a-4289-bbba-7512d461afa6}; !- HVAC Component

OS:Sizing:Zone,
  {8907cec2-ac3d-47f4-a33e-955c7002c27f}, !- Handle
  {552945aa-b00a-4289-bbba-7512d461afa6}, !- Zone or ZoneList Name
  SupplyAirTemperature,                   !- Zone Cooling Design Supply Air Temperature Input Method
  14,                                     !- Zone Cooling Design Supply Air Temperature {C}
  11.11,                                  !- Zone Cooling Design Supply Air Temperature Difference {deltaC}
  SupplyAirTemperature,                   !- Zone Heating Design Supply Air Temperature Input Method
  40,                                     !- Zone Heating Design Supply Air Temperature {C}
  11.11,                                  !- Zone Heating Design Supply Air Temperature Difference {deltaC}
  0.0085,                                 !- Zone Cooling Design Supply Air Humidity Ratio {kg-H2O/kg-air}
  0.008,                                  !- Zone Heating Design Supply Air Humidity Ratio {kg-H2O/kg-air}
  ,                                       !- Zone Heating Sizing Factor
  ,                                       !- Zone Cooling Sizing Factor
  DesignDay,                              !- Cooling Design Air Flow Method
  ,                                       !- Cooling Design Air Flow Rate {m3/s}
  ,                                       !- Cooling Minimum Air Flow per Zone Floor Area {m3/s-m2}
  ,                                       !- Cooling Minimum Air Flow {m3/s}
  ,                                       !- Cooling Minimum Air Flow Fraction
  DesignDay,                              !- Heating Design Air Flow Method
  ,                                       !- Heating Design Air Flow Rate {m3/s}
  ,                                       !- Heating Maximum Air Flow per Zone Floor Area {m3/s-m2}
  ,                                       !- Heating Maximum Air Flow {m3/s}
  ,                                       !- Heating Maximum Air Flow Fraction
  ,                                       !- Design Zone Air Distribution Effectiveness in Cooling Mode
  ,                                       !- Design Zone Air Distribution Effectiveness in Heating Mode
  No,                                     !- Account for Dedicated Outdoor Air System
  NeutralSupplyAir,                       !- Dedicated Outdoor Air System Control Strategy
  autosize,                               !- Dedicated Outdoor Air Low Setpoint Temperature for Design {C}
  autosize;                               !- Dedicated Outdoor Air High Setpoint Temperature for Design {C}

OS:ZoneHVAC:EquipmentList,
  {bbbf1f5a-8f7e-4b0f-bb29-163bb977715f}, !- Handle
  Zone HVAC Equipment List 2,             !- Name
  {552945aa-b00a-4289-bbba-7512d461afa6}; !- Thermal Zone

OS:Space,
  {538a8e61-d037-4149-a501-141d4848a1e0}, !- Handle
  garage space,                           !- Name
  {7dc6b444-300b-4be7-87ca-f5718effdca1}, !- Space Type Name
  ,                                       !- Default Construction Set Name
  ,                                       !- Default Schedule Set Name
  -0,                                     !- Direction of Relative North {deg}
  0,                                      !- X Origin {m}
  0,                                      !- Y Origin {m}
  0,                                      !- Z Origin {m}
  ,                                       !- Building Story Name
  {552945aa-b00a-4289-bbba-7512d461afa6}; !- Thermal Zone Name

OS:Surface,
  {1b1531a0-7d91-47c4-aa08-6c3247c3c05d}, !- Handle
  Surface 1,                              !- Name
  Floor,                                  !- Surface Type
  ,                                       !- Construction Name
  {538a8e61-d037-4149-a501-141d4848a1e0}, !- Space Name
  Foundation,                             !- Outside Boundary Condition
  ,                                       !- Outside Boundary Condition Object
  NoSun,                                  !- Sun Exposure
  NoWind,                                 !- Wind Exposure
  ,                                       !- View Factor to Ground
  ,                                       !- Number of Vertices
  1.51135555430162, -3.6576, 0,           !- X,Y,Z Vertex 1 {m}
  1.51135555430162, 3.6576, 0,            !- X,Y,Z Vertex 2 {m}
  12.4841555543016, 3.6576, 0,            !- X,Y,Z Vertex 3 {m}
  12.4841555543016, -3.6576, 0;           !- X,Y,Z Vertex 4 {m}

OS:Surface,
  {0d43452e-3d57-4661-bb55-ef0830eeb81a}, !- Handle
  Surface 2,                              !- Name
  Wall,                                   !- Surface Type
  ,                                       !- Construction Name
  {538a8e61-d037-4149-a501-141d4848a1e0}, !- Space Name
  Surface,                                !- Outside Boundary Condition
  {906df8e2-13fd-41d6-aae6-61a30dbacba9}, !- Outside Boundary Condition Object
  NoSun,                                  !- Sun Exposure
  NoWind,                                 !- Wind Exposure
  ,                                       !- View Factor to Ground
  ,                                       !- Number of Vertices
  1.51135555430162, 3.6576, 2.4384,       !- X,Y,Z Vertex 1 {m}
  1.51135555430162, 3.6576, 0,            !- X,Y,Z Vertex 2 {m}
  1.51135555430162, 0, 0,                 !- X,Y,Z Vertex 3 {m}
  1.51135555430162, 0, 2.4384;            !- X,Y,Z Vertex 4 {m}

OS:Surface,
  {b3b09193-37c6-403d-be3a-f410c2f240f5}, !- Handle
  Surface 3,                              !- Name
  Wall,                                   !- Surface Type
  ,                                       !- Construction Name
  {538a8e61-d037-4149-a501-141d4848a1e0}, !- Space Name
  Surface,                                !- Outside Boundary Condition
  {ee4620b7-e607-404a-ad17-aaf8a58b5f0a}, !- Outside Boundary Condition Object
  NoSun,                                  !- Sun Exposure
  NoWind,                                 !- Wind Exposure
  ,                                       !- View Factor to Ground
  ,                                       !- Number of Vertices
  12.4841555543016, 3.6576, 2.4384,       !- X,Y,Z Vertex 1 {m}
  12.4841555543016, 3.6576, 0,            !- X,Y,Z Vertex 2 {m}
  1.51135555430162, 3.6576, 0,            !- X,Y,Z Vertex 3 {m}
  1.51135555430162, 3.6576, 2.4384;       !- X,Y,Z Vertex 4 {m}

OS:Surface,
  {32149dd9-5705-41c5-8d6f-e369e345ccc0}, !- Handle
  Surface 4,                              !- Name
  Wall,                                   !- Surface Type
  ,                                       !- Construction Name
  {538a8e61-d037-4149-a501-141d4848a1e0}, !- Space Name
  Outdoors,                               !- Outside Boundary Condition
  ,                                       !- Outside Boundary Condition Object
  SunExposed,                             !- Sun Exposure
  WindExposed,                            !- Wind Exposure
  ,                                       !- View Factor to Ground
  ,                                       !- Number of Vertices
  12.4841555543016, -3.6576, 2.4384,      !- X,Y,Z Vertex 1 {m}
  12.4841555543016, -3.6576, 0,           !- X,Y,Z Vertex 2 {m}
  12.4841555543016, 3.6576, 0,            !- X,Y,Z Vertex 3 {m}
  12.4841555543016, 3.6576, 2.4384;       !- X,Y,Z Vertex 4 {m}

OS:Surface,
  {a9691b65-7a72-4929-859a-0caa1bcce10b}, !- Handle
  Surface 5,                              !- Name
  Wall,                                   !- Surface Type
  ,                                       !- Construction Name
  {538a8e61-d037-4149-a501-141d4848a1e0}, !- Space Name
  Outdoors,                               !- Outside Boundary Condition
  ,                                       !- Outside Boundary Condition Object
  SunExposed,                             !- Sun Exposure
  WindExposed,                            !- Wind Exposure
  ,                                       !- View Factor to Ground
  ,                                       !- Number of Vertices
  1.51135555430162, -3.6576, 2.4384,      !- X,Y,Z Vertex 1 {m}
  1.51135555430162, -3.6576, 0,           !- X,Y,Z Vertex 2 {m}
  12.4841555543016, -3.6576, 0,           !- X,Y,Z Vertex 3 {m}
  12.4841555543016, -3.6576, 2.4384;      !- X,Y,Z Vertex 4 {m}

OS:Surface,
  {027171f3-8123-4a37-b1d8-61cce790ed40}, !- Handle
  Surface 6,                              !- Name
  RoofCeiling,                            !- Surface Type
  ,                                       !- Construction Name
  {538a8e61-d037-4149-a501-141d4848a1e0}, !- Space Name
  Surface,                                !- Outside Boundary Condition
  {d4916396-b20b-4cc4-8771-1c46d6d0e801}, !- Outside Boundary Condition Object
  NoSun,                                  !- Sun Exposure
  NoWind,                                 !- Wind Exposure
  ,                                       !- View Factor to Ground
  ,                                       !- Number of Vertices
  12.4841555543016, 0, 2.4384,            !- X,Y,Z Vertex 1 {m}
  12.4841555543016, 3.6576, 2.4384,       !- X,Y,Z Vertex 2 {m}
  1.51135555430162, 3.6576, 2.4384,       !- X,Y,Z Vertex 3 {m}
  1.51135555430162, 0, 2.4384;            !- X,Y,Z Vertex 4 {m}

OS:SpaceType,
  {7dc6b444-300b-4be7-87ca-f5718effdca1}, !- Handle
  Space Type 1,                           !- Name
  ,                                       !- Default Construction Set Name
  ,                                       !- Default Schedule Set Name
  ,                                       !- Group Rendering Name
  ,                                       !- Design Specification Outdoor Air Object Name
  ,                                       !- Standards Template
  ,                                       !- Standards Building Type
  garage;                                 !- Standards Space Type

OS:Space,
  {7be804d2-a72c-4a90-a0bd-125536ca10d2}, !- Handle
  living space,                           !- Name
  {de9d1cd2-9ca4-4135-a179-109133ee67e7}, !- Space Type Name
  ,                                       !- Default Construction Set Name
  ,                                       !- Default Schedule Set Name
  -0,                                     !- Direction of Relative North {deg}
  0,                                      !- X Origin {m}
  0,                                      !- Y Origin {m}
  0,                                      !- Z Origin {m}
  ,                                       !- Building Story Name
  {a4e58796-b0b0-4350-bfd2-5ac830e35aff}, !- Thermal Zone Name
  ,                                       !- Part of Total Floor Area
  ,                                       !- Design Specification Outdoor Air Object Name
  {53667bd5-2cfe-4bba-8a9a-e4c6cc842884}; !- Building Unit Name

OS:Surface,
  {b06483a8-b542-4bf6-ab27-f633e725928f}, !- Handle
  Surface 7,                              !- Name
  Floor,                                  !- Surface Type
  ,                                       !- Construction Name
  {7be804d2-a72c-4a90-a0bd-125536ca10d2}, !- Space Name
  Surface,                                !- Outside Boundary Condition
  {4afd3eda-b8a6-4a8f-b573-9a20383e124a}, !- Outside Boundary Condition Object
  NoSun,                                  !- Sun Exposure
  NoWind,                                 !- Wind Exposure
  ,                                       !- View Factor to Ground
  ,                                       !- Number of Vertices
  0, 0, 0,                                !- X,Y,Z Vertex 1 {m}
  0, 6.93564197461201, 0,                 !- X,Y,Z Vertex 2 {m}
  12.4841555543016, 6.93564197461201, 0,  !- X,Y,Z Vertex 3 {m}
  12.4841555543016, 3.6576, 0,            !- X,Y,Z Vertex 4 {m}
  1.51135555430162, 3.6576, 0,            !- X,Y,Z Vertex 5 {m}
  1.51135555430162, 0, 0;                 !- X,Y,Z Vertex 6 {m}

OS:Surface,
  {7c956004-98de-4912-8a24-375217c29fd0}, !- Handle
  Surface 8,                              !- Name
  Wall,                                   !- Surface Type
  ,                                       !- Construction Name
  {7be804d2-a72c-4a90-a0bd-125536ca10d2}, !- Space Name
  Outdoors,                               !- Outside Boundary Condition
  ,                                       !- Outside Boundary Condition Object
  SunExposed,                             !- Sun Exposure
  WindExposed,                            !- Wind Exposure
  ,                                       !- View Factor to Ground
  ,                                       !- Number of Vertices
  0, 6.93564197461201, 2.4384,            !- X,Y,Z Vertex 1 {m}
  0, 6.93564197461201, 0,                 !- X,Y,Z Vertex 2 {m}
  0, 0, 0,                                !- X,Y,Z Vertex 3 {m}
  0, 0, 2.4384;                           !- X,Y,Z Vertex 4 {m}

OS:Surface,
  {2d15d374-24fc-43fc-b07a-70399023b3dc}, !- Handle
  Surface 9,                              !- Name
  Wall,                                   !- Surface Type
  ,                                       !- Construction Name
  {7be804d2-a72c-4a90-a0bd-125536ca10d2}, !- Space Name
  Outdoors,                               !- Outside Boundary Condition
  ,                                       !- Outside Boundary Condition Object
  SunExposed,                             !- Sun Exposure
  WindExposed,                            !- Wind Exposure
  ,                                       !- View Factor to Ground
  ,                                       !- Number of Vertices
  12.4841555543016, 6.93564197461201, 2.4384, !- X,Y,Z Vertex 1 {m}
  12.4841555543016, 6.93564197461201, 0,  !- X,Y,Z Vertex 2 {m}
  0, 6.93564197461201, 0,                 !- X,Y,Z Vertex 3 {m}
  0, 6.93564197461201, 2.4384;            !- X,Y,Z Vertex 4 {m}

OS:Surface,
  {3e684d30-81c9-40de-9337-45fa7fe818ea}, !- Handle
  Surface 10,                             !- Name
  Wall,                                   !- Surface Type
  ,                                       !- Construction Name
  {7be804d2-a72c-4a90-a0bd-125536ca10d2}, !- Space Name
  Outdoors,                               !- Outside Boundary Condition
  ,                                       !- Outside Boundary Condition Object
  SunExposed,                             !- Sun Exposure
  WindExposed,                            !- Wind Exposure
  ,                                       !- View Factor to Ground
  ,                                       !- Number of Vertices
  12.4841555543016, 3.6576, 2.4384,       !- X,Y,Z Vertex 1 {m}
  12.4841555543016, 3.6576, 0,            !- X,Y,Z Vertex 2 {m}
  12.4841555543016, 6.93564197461201, 0,  !- X,Y,Z Vertex 3 {m}
  12.4841555543016, 6.93564197461201, 2.4384; !- X,Y,Z Vertex 4 {m}

OS:Surface,
  {ee4620b7-e607-404a-ad17-aaf8a58b5f0a}, !- Handle
  Surface 11,                             !- Name
  Wall,                                   !- Surface Type
  ,                                       !- Construction Name
  {7be804d2-a72c-4a90-a0bd-125536ca10d2}, !- Space Name
  Surface,                                !- Outside Boundary Condition
  {b3b09193-37c6-403d-be3a-f410c2f240f5}, !- Outside Boundary Condition Object
  NoSun,                                  !- Sun Exposure
  NoWind,                                 !- Wind Exposure
  ,                                       !- View Factor to Ground
  ,                                       !- Number of Vertices
  1.51135555430162, 3.6576, 2.4384,       !- X,Y,Z Vertex 1 {m}
  1.51135555430162, 3.6576, 0,            !- X,Y,Z Vertex 2 {m}
  12.4841555543016, 3.6576, 0,            !- X,Y,Z Vertex 3 {m}
  12.4841555543016, 3.6576, 2.4384;       !- X,Y,Z Vertex 4 {m}

OS:Surface,
  {906df8e2-13fd-41d6-aae6-61a30dbacba9}, !- Handle
  Surface 12,                             !- Name
  Wall,                                   !- Surface Type
  ,                                       !- Construction Name
  {7be804d2-a72c-4a90-a0bd-125536ca10d2}, !- Space Name
  Surface,                                !- Outside Boundary Condition
  {0d43452e-3d57-4661-bb55-ef0830eeb81a}, !- Outside Boundary Condition Object
  NoSun,                                  !- Sun Exposure
  NoWind,                                 !- Wind Exposure
  ,                                       !- View Factor to Ground
  ,                                       !- Number of Vertices
  1.51135555430162, 0, 2.4384,            !- X,Y,Z Vertex 1 {m}
  1.51135555430162, 0, 0,                 !- X,Y,Z Vertex 2 {m}
  1.51135555430162, 3.6576, 0,            !- X,Y,Z Vertex 3 {m}
  1.51135555430162, 3.6576, 2.4384;       !- X,Y,Z Vertex 4 {m}

OS:Surface,
  {3967645d-8d2c-4af6-b457-066e8083f577}, !- Handle
  Surface 13,                             !- Name
  Wall,                                   !- Surface Type
  ,                                       !- Construction Name
  {7be804d2-a72c-4a90-a0bd-125536ca10d2}, !- Space Name
  Outdoors,                               !- Outside Boundary Condition
  ,                                       !- Outside Boundary Condition Object
  SunExposed,                             !- Sun Exposure
  WindExposed,                            !- Wind Exposure
  ,                                       !- View Factor to Ground
  ,                                       !- Number of Vertices
  0, 0, 2.4384,                           !- X,Y,Z Vertex 1 {m}
  0, 0, 0,                                !- X,Y,Z Vertex 2 {m}
  1.51135555430162, 0, 0,                 !- X,Y,Z Vertex 3 {m}
  1.51135555430162, 0, 2.4384;            !- X,Y,Z Vertex 4 {m}

OS:Surface,
  {a23f04f9-64ca-44bb-9b40-11efe0f6604e}, !- Handle
  Surface 14,                             !- Name
  RoofCeiling,                            !- Surface Type
  ,                                       !- Construction Name
  {7be804d2-a72c-4a90-a0bd-125536ca10d2}, !- Space Name
  Surface,                                !- Outside Boundary Condition
  {89e4757c-a323-4743-8af3-e385a7e0321c}, !- Outside Boundary Condition Object
  NoSun,                                  !- Sun Exposure
  NoWind,                                 !- Wind Exposure
  ,                                       !- View Factor to Ground
  ,                                       !- Number of Vertices
  1.51135555430162, 0, 2.4384,            !- X,Y,Z Vertex 1 {m}
  1.51135555430162, 3.6576, 2.4384,       !- X,Y,Z Vertex 2 {m}