!- NOTE: Auto-generated from /test/osw_files/SFD_2000sqft_2story_FB_GRG_UA_3Beds_2Baths_Denver_WHTank_HWFixtures.osw

OS:Version,
  {678c6781-1abc-4335-94da-b986f357ec15}, !- Handle
  2.8.0;                                  !- Version Identifier

OS:Building,
  {661ac8d1-9bc3-46fc-be34-2f456489976e}, !- Handle
  Building 1,                             !- Name
  ,                                       !- Building Sector Type
  0,                                      !- North Axis {deg}
  ,                                       !- Nominal Floor to Floor Height {m}
  ,                                       !- Space Type Name
  ,                                       !- Default Construction Set Name
  ,                                       !- Default Schedule Set Name
  3,                                      !- Standards Number of Stories
  2,                                      !- Standards Number of Above Ground Stories
  ,                                       !- Standards Template
  singlefamilydetached,                   !- Standards Building Type
  1;                                      !- Standards Number of Living Units

OS:Facility,
  {01a668df-2b28-4215-a031-8f6269e6cb48}; !- Handle

OS:Site,
  {d111249c-d083-4de5-a838-b4fd19fb9fbb}, !- Handle
  Denver Intl Ap_CO_USA,                  !- Name
  39.83,                                  !- Latitude {deg}
  -104.65,                                !- Longitude {deg}
  -7,                                     !- Time Zone {hr}
  1650,                                   !- Elevation {m}
  ;                                       !- Terrain

OS:SimulationControl,
  {2c5f34ea-b160-4b10-8732-9e75531300b4}, !- Handle
  ,                                       !- Do Zone Sizing Calculation
  ,                                       !- Do System Sizing Calculation
  ,                                       !- Do Plant Sizing Calculation
  No;                                     !- Run Simulation for Sizing Periods

OS:Sizing:Parameters,
  {0ffdf8b1-ecb4-4970-8f7d-d30337ca3ec1}, !- Handle
  1.25,                                   !- Heating Sizing Factor
  1.15;                                   !- Cooling Sizing Factor

OS:Timestep,
  {13c8f68b-6a2b-4689-9f70-e8e24424e966}, !- Handle
  6;                                      !- Number of Timesteps per Hour

OS:ShadowCalculation,
  {4f06ed60-763b-4650-8df3-fc75ebe3a67c}, !- Handle
  20,                                     !- Calculation Frequency
  200;                                    !- Maximum Figures in Shadow Overlap Calculations

OS:HeatBalanceAlgorithm,
  {14573fbd-9b2d-41ea-812a-a3fef5ee188f}, !- Handle
  ConductionTransferFunction,             !- Algorithm
  200;                                    !- Surface Temperature Upper Limit {C}

OS:RunPeriod,
  {455a09e1-6d76-4a02-99be-0ca763fadd6d}, !- Handle
  Run Period 1,                           !- Name
  1,                                      !- Begin Month
  1,                                      !- Begin Day of Month
  12,                                     !- End Month
  31,                                     !- End Day of Month
  ,                                       !- Use Weather File Holidays and Special Days
  ,                                       !- Use Weather File Daylight Saving Period
  ,                                       !- Apply Weekend Holiday Rule
  ,                                       !- Use Weather File Rain Indicators
  ,                                       !- Use Weather File Snow Indicators
  ;                                       !- Number of Times Runperiod to be Repeated

OS:LifeCycleCost:Parameters,
  {782b1cab-1e3b-45ad-963b-5759147e0a24}, !- Handle
  ,                                       !- Analysis Type
  ,                                       !- Discounting Convention
  ,                                       !- Inflation Approach
  ,                                       !- Real Discount Rate
  ,                                       !- Nominal Discount Rate
  ,                                       !- Inflation
  ,                                       !- Base Date Month
  ,                                       !- Base Date Year
  ,                                       !- Service Date Month
  ,                                       !- Service Date Year
  ;                                       !- Length of Study Period in Years

OS:SurfaceConvectionAlgorithm:Outside,
  {d4af95ee-e67f-4d88-8401-3840e9628836}, !- Handle
  DOE-2;                                  !- Algorithm

OS:SurfaceConvectionAlgorithm:Inside,
  {dce78153-5902-4bc6-9251-c8174d55e451}, !- Handle
  TARP;                                   !- Algorithm

OS:ZoneCapacitanceMultiplier:ResearchSpecial,
  {73f252cd-079f-4709-91f4-44feed287fe4}, !- Handle
  ,                                       !- Temperature Capacity Multiplier
  15,                                     !- Humidity Capacity Multiplier
  ;                                       !- Carbon Dioxide Capacity Multiplier

OS:ThermalZone,
  {2c2a75c8-45e5-4316-babb-8a389dbad2cf}, !- Handle
  living zone,                            !- Name
  ,                                       !- Multiplier
  ,                                       !- Ceiling Height {m}
  ,                                       !- Volume {m3}
  ,                                       !- Floor Area {m2}
  ,                                       !- Zone Inside Convection Algorithm
  ,                                       !- Zone Outside Convection Algorithm
  ,                                       !- Zone Conditioning Equipment List Name
  {a127c1eb-afbe-41b1-8305-da07419ccbf6}, !- Zone Air Inlet Port List
  {16a1a9e8-9482-4d14-a23f-c6c1e8f05174}, !- Zone Air Exhaust Port List
  {31cc514f-98d7-490d-89f9-5cddd2baa09b}, !- Zone Air Node Name
  {4ae54ec6-2970-45f0-948c-d8b6181dbfc7}, !- Zone Return Air Port List
  ,                                       !- Primary Daylighting Control Name
  ,                                       !- Fraction of Zone Controlled by Primary Daylighting Control
  ,                                       !- Secondary Daylighting Control Name
  ,                                       !- Fraction of Zone Controlled by Secondary Daylighting Control
  ,                                       !- Illuminance Map Name
  ,                                       !- Group Rendering Name
  ,                                       !- Thermostat Name
  No;                                     !- Use Ideal Air Loads

OS:Node,
  {2bcea672-87ef-4649-9a3f-6a980448be73}, !- Handle
  Node 1,                                 !- Name
  {31cc514f-98d7-490d-89f9-5cddd2baa09b}, !- Inlet Port
  ;                                       !- Outlet Port

OS:Connection,
  {31cc514f-98d7-490d-89f9-5cddd2baa09b}, !- Handle
  {30fd4c8e-f435-4f7a-ac84-b5ccc0f9406d}, !- Name
  {2c2a75c8-45e5-4316-babb-8a389dbad2cf}, !- Source Object
  11,                                     !- Outlet Port
  {2bcea672-87ef-4649-9a3f-6a980448be73}, !- Target Object
  2;                                      !- Inlet Port

OS:PortList,
  {a127c1eb-afbe-41b1-8305-da07419ccbf6}, !- Handle
  {2ab2fd71-a649-4cf5-b02b-3e5a511b910d}, !- Name
  {2c2a75c8-45e5-4316-babb-8a389dbad2cf}; !- HVAC Component

OS:PortList,
  {16a1a9e8-9482-4d14-a23f-c6c1e8f05174}, !- Handle
  {6e60317f-f95d-46ec-b618-e4abf3f5b7d6}, !- Name
  {2c2a75c8-45e5-4316-babb-8a389dbad2cf}; !- HVAC Component

OS:PortList,
  {4ae54ec6-2970-45f0-948c-d8b6181dbfc7}, !- Handle
  {70f9f9e2-4d2e-4023-b47f-c2399b1d9709}, !- Name
  {2c2a75c8-45e5-4316-babb-8a389dbad2cf}; !- HVAC Component

OS:Sizing:Zone,
  {cfe5861f-ca0a-432c-86bf-870e8e358c38}, !- Handle
  {2c2a75c8-45e5-4316-babb-8a389dbad2cf}, !- Zone or ZoneList Name
  SupplyAirTemperature,                   !- Zone Cooling Design Supply Air Temperature Input Method
  14,                                     !- Zone Cooling Design Supply Air Temperature {C}
  11.11,                                  !- Zone Cooling Design Supply Air Temperature Difference {deltaC}
  SupplyAirTemperature,                   !- Zone Heating Design Supply Air Temperature Input Method
  40,                                     !- Zone Heating Design Supply Air Temperature {C}
  11.11,                                  !- Zone Heating Design Supply Air Temperature Difference {deltaC}
  0.0085,                                 !- Zone Cooling Design Supply Air Humidity Ratio {kg-H2O/kg-air}
  0.008,                                  !- Zone Heating Design Supply Air Humidity Ratio {kg-H2O/kg-air}
  ,                                       !- Zone Heating Sizing Factor
  ,                                       !- Zone Cooling Sizing Factor
  DesignDay,                              !- Cooling Design Air Flow Method
  ,                                       !- Cooling Design Air Flow Rate {m3/s}
  ,                                       !- Cooling Minimum Air Flow per Zone Floor Area {m3/s-m2}
  ,                                       !- Cooling Minimum Air Flow {m3/s}
  ,                                       !- Cooling Minimum Air Flow Fraction
  DesignDay,                              !- Heating Design Air Flow Method
  ,                                       !- Heating Design Air Flow Rate {m3/s}
  ,                                       !- Heating Maximum Air Flow per Zone Floor Area {m3/s-m2}
  ,                                       !- Heating Maximum Air Flow {m3/s}
  ,                                       !- Heating Maximum Air Flow Fraction
  ,                                       !- Design Zone Air Distribution Effectiveness in Cooling Mode
  ,                                       !- Design Zone Air Distribution Effectiveness in Heating Mode
  No,                                     !- Account for Dedicated Outdoor Air System
  NeutralSupplyAir,                       !- Dedicated Outdoor Air System Control Strategy
  autosize,                               !- Dedicated Outdoor Air Low Setpoint Temperature for Design {C}
  autosize;                               !- Dedicated Outdoor Air High Setpoint Temperature for Design {C}

OS:ZoneHVAC:EquipmentList,
  {dbd13127-b487-466e-a047-4d350aa80c52}, !- Handle
  Zone HVAC Equipment List 1,             !- Name
  {2c2a75c8-45e5-4316-babb-8a389dbad2cf}; !- Thermal Zone

OS:ThermalZone,
  {49aa6b7a-24e2-4220-9599-91384f15c523}, !- Handle
  garage zone,                            !- Name
  ,                                       !- Multiplier
  ,                                       !- Ceiling Height {m}
  ,                                       !- Volume {m3}
  ,                                       !- Floor Area {m2}
  ,                                       !- Zone Inside Convection Algorithm
  ,                                       !- Zone Outside Convection Algorithm
  ,                                       !- Zone Conditioning Equipment List Name
  {070fdadc-0451-435b-a338-a41c7b7dd91f}, !- Zone Air Inlet Port List
  {04f52ea7-0aa3-4449-b8a1-021992afa3aa}, !- Zone Air Exhaust Port List
  {711f5c04-806f-413f-b12b-96366addc256}, !- Zone Air Node Name
  {6b35e733-8ec7-40ac-afd0-86de1910113b}, !- Zone Return Air Port List
  ,                                       !- Primary Daylighting Control Name
  ,                                       !- Fraction of Zone Controlled by Primary Daylighting Control
  ,                                       !- Secondary Daylighting Control Name
  ,                                       !- Fraction of Zone Controlled by Secondary Daylighting Control
  ,                                       !- Illuminance Map Name
  ,                                       !- Group Rendering Name
  ,                                       !- Thermostat Name
  No;                                     !- Use Ideal Air Loads

OS:Node,
  {7c97e372-5511-4993-af64-d4e3ddecc1c6}, !- Handle
  Node 2,                                 !- Name
  {711f5c04-806f-413f-b12b-96366addc256}, !- Inlet Port
  ;                                       !- Outlet Port

OS:Connection,
  {711f5c04-806f-413f-b12b-96366addc256}, !- Handle
  {97d9016e-33b7-4a95-b5f0-cd401bcdc10a}, !- Name
  {49aa6b7a-24e2-4220-9599-91384f15c523}, !- Source Object
  11,                                     !- Outlet Port
  {7c97e372-5511-4993-af64-d4e3ddecc1c6}, !- Target Object
  2;                                      !- Inlet Port

OS:PortList,
  {070fdadc-0451-435b-a338-a41c7b7dd91f}, !- Handle
  {6a73f8c4-3c00-4eb1-9465-16e22a3c31bb}, !- Name
  {49aa6b7a-24e2-4220-9599-91384f15c523}; !- HVAC Component

OS:PortList,
  {04f52ea7-0aa3-4449-b8a1-021992afa3aa}, !- Handle
  {86e1ec2f-743e-4bd7-a300-fc795a9e8b3f}, !- Name
  {49aa6b7a-24e2-4220-9599-91384f15c523}; !- HVAC Component

OS:PortList,
  {6b35e733-8ec7-40ac-afd0-86de1910113b}, !- Handle
  {edf3d4e0-6b66-41a0-b395-f145d00e4607}, !- Name
  {49aa6b7a-24e2-4220-9599-91384f15c523}; !- HVAC Component

OS:Sizing:Zone,
  {609ed9f8-cce9-4dcf-af79-a6ce61e9e3f4}, !- Handle
  {49aa6b7a-24e2-4220-9599-91384f15c523}, !- Zone or ZoneList Name
  SupplyAirTemperature,                   !- Zone Cooling Design Supply Air Temperature Input Method
  14,                                     !- Zone Cooling Design Supply Air Temperature {C}
  11.11,                                  !- Zone Cooling Design Supply Air Temperature Difference {deltaC}
  SupplyAirTemperature,                   !- Zone Heating Design Supply Air Temperature Input Method
  40,                                     !- Zone Heating Design Supply Air Temperature {C}
  11.11,                                  !- Zone Heating Design Supply Air Temperature Difference {deltaC}
  0.0085,                                 !- Zone Cooling Design Supply Air Humidity Ratio {kg-H2O/kg-air}
  0.008,                                  !- Zone Heating Design Supply Air Humidity Ratio {kg-H2O/kg-air}
  ,                                       !- Zone Heating Sizing Factor
  ,                                       !- Zone Cooling Sizing Factor
  DesignDay,                              !- Cooling Design Air Flow Method
  ,                                       !- Cooling Design Air Flow Rate {m3/s}
  ,                                       !- Cooling Minimum Air Flow per Zone Floor Area {m3/s-m2}
  ,                                       !- Cooling Minimum Air Flow {m3/s}
  ,                                       !- Cooling Minimum Air Flow Fraction
  DesignDay,                              !- Heating Design Air Flow Method
  ,                                       !- Heating Design Air Flow Rate {m3/s}
  ,                                       !- Heating Maximum Air Flow per Zone Floor Area {m3/s-m2}
  ,                                       !- Heating Maximum Air Flow {m3/s}
  ,                                       !- Heating Maximum Air Flow Fraction
  ,                                       !- Design Zone Air Distribution Effectiveness in Cooling Mode
  ,                                       !- Design Zone Air Distribution Effectiveness in Heating Mode
  No,                                     !- Account for Dedicated Outdoor Air System
  NeutralSupplyAir,                       !- Dedicated Outdoor Air System Control Strategy
  autosize,                               !- Dedicated Outdoor Air Low Setpoint Temperature for Design {C}
  autosize;                               !- Dedicated Outdoor Air High Setpoint Temperature for Design {C}

OS:ZoneHVAC:EquipmentList,
  {96e52000-6fbc-4208-99ca-44f35340c96c}, !- Handle
  Zone HVAC Equipment List 2,             !- Name
  {49aa6b7a-24e2-4220-9599-91384f15c523}; !- Thermal Zone

OS:Space,
  {8201f1da-1b6b-418f-84e0-33cc3595bde6}, !- Handle
  garage space,                           !- Name
  {515ae534-755a-44b0-bba2-e0e11e3a41a3}, !- Space Type Name
  ,                                       !- Default Construction Set Name
  ,                                       !- Default Schedule Set Name
  -0,                                     !- Direction of Relative North {deg}
  0,                                      !- X Origin {m}
  0,                                      !- Y Origin {m}
  0,                                      !- Z Origin {m}
  ,                                       !- Building Story Name
  {49aa6b7a-24e2-4220-9599-91384f15c523}; !- Thermal Zone Name

OS:Surface,
  {6f5a0ecb-dd86-47a9-941e-7c34fa8df801}, !- Handle
  Surface 1,                              !- Name
  Floor,                                  !- Surface Type
  ,                                       !- Construction Name
  {8201f1da-1b6b-418f-84e0-33cc3595bde6}, !- Space Name
  Foundation,                             !- Outside Boundary Condition
  ,                                       !- Outside Boundary Condition Object
  NoSun,                                  !- Sun Exposure
  NoWind,                                 !- Wind Exposure
  ,                                       !- View Factor to Ground
  ,                                       !- Number of Vertices
  5.57695129776527, -3.048, 0,            !- X,Y,Z Vertex 1 {m}
  5.57695129776527, 3.048, 0,             !- X,Y,Z Vertex 2 {m}
  11.6729512977653, 3.048, 0,             !- X,Y,Z Vertex 3 {m}
  11.6729512977653, -3.048, 0;            !- X,Y,Z Vertex 4 {m}

OS:Surface,
  {ff3165d5-085f-46f5-b587-ea3c83c60b15}, !- Handle
  Surface 2,                              !- Name
  Wall,                                   !- Surface Type
  ,                                       !- Construction Name
  {8201f1da-1b6b-418f-84e0-33cc3595bde6}, !- Space Name
  Surface,                                !- Outside Boundary Condition
  {f3966324-1b3c-443f-963e-ec243b522750}, !- Outside Boundary Condition Object
  NoSun,                                  !- Sun Exposure
  NoWind,                                 !- Wind Exposure
  ,                                       !- View Factor to Ground
  ,                                       !- Number of Vertices
  5.57695129776527, 3.048, 2.4384,        !- X,Y,Z Vertex 1 {m}
  5.57695129776527, 3.048, 0,             !- X,Y,Z Vertex 2 {m}
  5.57695129776527, 0, 0,                 !- X,Y,Z Vertex 3 {m}
  5.57695129776527, 0, 2.4384;            !- X,Y,Z Vertex 4 {m}

OS:Surface,
  {24f441ec-0a9e-4cf5-875f-93785b6f6dba}, !- Handle
  Surface 3,                              !- Name
  Wall,                                   !- Surface Type
  ,                                       !- Construction Name
  {8201f1da-1b6b-418f-84e0-33cc3595bde6}, !- Space Name
  Surface,                                !- Outside Boundary Condition
  {b4603740-4665-4145-aa92-7705f232d9be}, !- Outside Boundary Condition Object
  NoSun,                                  !- Sun Exposure
  NoWind,                                 !- Wind Exposure
  ,                                       !- View Factor to Ground
  ,                                       !- Number of Vertices
  11.6729512977653, 3.048, 2.4384,        !- X,Y,Z Vertex 1 {m}
  11.6729512977653, 3.048, 0,             !- X,Y,Z Vertex 2 {m}
  5.57695129776527, 3.048, 0,             !- X,Y,Z Vertex 3 {m}
  5.57695129776527, 3.048, 2.4384;        !- X,Y,Z Vertex 4 {m}

OS:Surface,
  {01c6146d-cb20-4202-adb2-c85016b1194d}, !- Handle
  Surface 4,                              !- Name
  Wall,                                   !- Surface Type
  ,                                       !- Construction Name
  {8201f1da-1b6b-418f-84e0-33cc3595bde6}, !- Space Name
  Outdoors,                               !- Outside Boundary Condition
  ,                                       !- Outside Boundary Condition Object
  SunExposed,                             !- Sun Exposure
  WindExposed,                            !- Wind Exposure
  ,                                       !- View Factor to Ground
  ,                                       !- Number of Vertices
  11.6729512977653, -3.048, 2.4384,       !- X,Y,Z Vertex 1 {m}
  11.6729512977653, -3.048, 0,            !- X,Y,Z Vertex 2 {m}
  11.6729512977653, 3.048, 0,             !- X,Y,Z Vertex 3 {m}
  11.6729512977653, 3.048, 2.4384;        !- X,Y,Z Vertex 4 {m}

OS:Surface,
  {17fb8ad8-21f3-432c-afd1-67a3e2ef461d}, !- Handle
  Surface 5,                              !- Name
  Wall,                                   !- Surface Type
  ,                                       !- Construction Name
  {8201f1da-1b6b-418f-84e0-33cc3595bde6}, !- Space Name
  Outdoors,                               !- Outside Boundary Condition
  ,                                       !- Outside Boundary Condition Object
  SunExposed,                             !- Sun Exposure
  WindExposed,                            !- Wind Exposure
  ,                                       !- View Factor to Ground
  ,                                       !- Number of Vertices
  5.57695129776527, -3.048, 2.4384,       !- X,Y,Z Vertex 1 {m}
  5.57695129776527, -3.048, 0,            !- X,Y,Z Vertex 2 {m}
  11.6729512977653, -3.048, 0,            !- X,Y,Z Vertex 3 {m}
  11.6729512977653, -3.048, 2.4384;       !- X,Y,Z Vertex 4 {m}

OS:Surface,
  {88176eed-b906-4615-b253-76caf1f48461}, !- Handle
  Surface 6,                              !- Name
  RoofCeiling,                            !- Surface Type
  ,                                       !- Construction Name
  {8201f1da-1b6b-418f-84e0-33cc3595bde6}, !- Space Name
  Surface,                                !- Outside Boundary Condition
  {fdb39d46-5f8b-42b4-81f5-ff0e6c73b99a}, !- Outside Boundary Condition Object
  NoSun,                                  !- Sun Exposure
  NoWind,                                 !- Wind Exposure
  ,                                       !- View Factor to Ground
  ,                                       !- Number of Vertices
  11.6729512977653, -3.048, 2.4384,       !- X,Y,Z Vertex 1 {m}
  11.6729512977653, 3.048, 2.4384,        !- X,Y,Z Vertex 2 {m}
  5.57695129776527, 3.048, 2.4384,        !- X,Y,Z Vertex 3 {m}
  5.57695129776527, -3.048, 2.4384;       !- X,Y,Z Vertex 4 {m}

OS:SpaceType,
  {515ae534-755a-44b0-bba2-e0e11e3a41a3}, !- Handle
  Space Type 1,                           !- Name
  ,                                       !- Default Construction Set Name
  ,                                       !- Default Schedule Set Name
  ,                                       !- Group Rendering Name
  ,                                       !- Design Specification Outdoor Air Object Name
  ,                                       !- Standards Template
  ,                                       !- Standards Building Type
  garage;                                 !- Standards Space Type

OS:Space,
  {7342d98c-b155-4307-a438-4924b4dc59f8}, !- Handle
  living space,                           !- Name
  {f05790c2-4411-4e5b-8e77-1dbd11f86be0}, !- Space Type Name
  ,                                       !- Default Construction Set Name
  ,                                       !- Default Schedule Set Name
  -0,                                     !- Direction of Relative North {deg}
  0,                                      !- X Origin {m}
  0,                                      !- Y Origin {m}
  0,                                      !- Z Origin {m}
  ,                                       !- Building Story Name
  {2c2a75c8-45e5-4316-babb-8a389dbad2cf}, !- Thermal Zone Name
  ,                                       !- Part of Total Floor Area
  ,                                       !- Design Specification Outdoor Air Object Name
  {fd508414-54e8-4519-be09-8333dcd07116}; !- Building Unit Name

OS:Surface,
  {36f3f18e-6f47-4cb4-a556-c22982ef72a6}, !- Handle
  Surface 7,                              !- Name
  Floor,                                  !- Surface Type
  ,                                       !- Construction Name
  {7342d98c-b155-4307-a438-4924b4dc59f8}, !- Space Name
  Surface,                                !- Outside Boundary Condition
  {6c7fd5ae-fd49-4a82-a990-09a34c4ecba9}, !- Outside Boundary Condition Object
  NoSun,                                  !- Sun Exposure
  NoWind,                                 !- Wind Exposure
  ,                                       !- View Factor to Ground
  ,                                       !- Number of Vertices
  0, 0, 0,                                !- X,Y,Z Vertex 1 {m}
  0, 5.83647564888264, 0,                 !- X,Y,Z Vertex 2 {m}
  11.6729512977653, 5.83647564888264, 0,  !- X,Y,Z Vertex 3 {m}
  11.6729512977653, 3.048, 0,             !- X,Y,Z Vertex 4 {m}
  5.57695129776527, 3.048, 0,             !- X,Y,Z Vertex 5 {m}
  5.57695129776527, 0, 0;                 !- X,Y,Z Vertex 6 {m}

OS:Surface,
  {c404f368-7790-4da0-8b02-54c5ffa84458}, !- Handle
  Surface 8,                              !- Name
  Wall,                                   !- Surface Type
  ,                                       !- Construction Name
  {7342d98c-b155-4307-a438-4924b4dc59f8}, !- Space Name
  Outdoors,                               !- Outside Boundary Condition
  ,                                       !- Outside Boundary Condition Object
  SunExposed,                             !- Sun Exposure
  WindExposed,                            !- Wind Exposure
  ,                                       !- View Factor to Ground
  ,                                       !- Number of Vertices
  0, 5.83647564888264, 2.4384,            !- X,Y,Z Vertex 1 {m}
  0, 5.83647564888264, 0,                 !- X,Y,Z Vertex 2 {m}
  0, 0, 0,                                !- X,Y,Z Vertex 3 {m}
  0, 0, 2.4384;                           !- X,Y,Z Vertex 4 {m}

OS:Surface,
  {96736ceb-9f1a-4038-a12d-bd1b485bf2a2}, !- Handle
  Surface 9,                              !- Name
  Wall,                                   !- Surface Type
  ,                                       !- Construction Name
  {7342d98c-b155-4307-a438-4924b4dc59f8}, !- Space Name
  Outdoors,                               !- Outside Boundary Condition
  ,                                       !- Outside Boundary Condition Object
  SunExposed,                             !- Sun Exposure
  WindExposed,                            !- Wind Exposure
  ,                                       !- View Factor to Ground
  ,                                       !- Number of Vertices
  11.6729512977653, 5.83647564888264, 2.4384, !- X,Y,Z Vertex 1 {m}
  11.6729512977653, 5.83647564888264, 0,  !- X,Y,Z Vertex 2 {m}
  0, 5.83647564888264, 0,                 !- X,Y,Z Vertex 3 {m}
  0, 5.83647564888264, 2.4384;            !- X,Y,Z Vertex 4 {m}

OS:Surface,
  {c65eba09-ff90-41cd-af42-52f2e9b04cb1}, !- Handle
  Surface 10,                             !- Name
  Wall,                                   !- Surface Type
  ,                                       !- Construction Name
  {7342d98c-b155-4307-a438-4924b4dc59f8}, !- Space Name
  Outdoors,                               !- Outside Boundary Condition
  ,                                       !- Outside Boundary Condition Object
  SunExposed,                             !- Sun Exposure
  WindExposed,                            !- Wind Exposure
  ,                                       !- View Factor to Ground
  ,                                       !- Number of Vertices
  11.6729512977653, 3.048, 2.4384,        !- X,Y,Z Vertex 1 {m}
  11.6729512977653, 3.048, 0,             !- X,Y,Z Vertex 2 {m}
  11.6729512977653, 5.83647564888264, 0,  !- X,Y,Z Vertex 3 {m}
  11.6729512977653, 5.83647564888264, 2.4384; !- X,Y,Z Vertex 4 {m}

OS:Surface,
  {b4603740-4665-4145-aa92-7705f232d9be}, !- Handle
  Surface 11,                             !- Name
  Wall,                                   !- Surface Type
  ,                                       !- Construction Name
  {7342d98c-b155-4307-a438-4924b4dc59f8}, !- Space Name
  Surface,                                !- Outside Boundary Condition
  {24f441ec-0a9e-4cf5-875f-93785b6f6dba}, !- Outside Boundary Condition Object
  NoSun,                                  !- Sun Exposure
  NoWind,                                 !- Wind Exposure
  ,                                       !- View Factor to Ground
  ,                                       !- Number of Vertices
  5.57695129776527, 3.048, 2.4384,        !- X,Y,Z Vertex 1 {m}
  5.57695129776527, 3.048, 0,             !- X,Y,Z Vertex 2 {m}
  11.6729512977653, 3.048, 0,             !- X,Y,Z Vertex 3 {m}
  11.6729512977653, 3.048, 2.4384;        !- X,Y,Z Vertex 4 {m}

OS:Surface,
  {f3966324-1b3c-443f-963e-ec243b522750}, !- Handle
  Surface 12,                             !- Name
  Wall,                                   !- Surface Type
  ,                                       !- Construction Name
  {7342d98c-b155-4307-a438-4924b4dc59f8}, !- Space Name
  Surface,                                !- Outside Boundary Condition
  {ff3165d5-085f-46f5-b587-ea3c83c60b15}, !- Outside Boundary Condition Object
  NoSun,                                  !- Sun Exposure
  NoWind,                                 !- Wind Exposure
  ,                                       !- View Factor to Ground
  ,                                       !- Number of Vertices
  5.57695129776527, 0, 2.4384,            !- X,Y,Z Vertex 1 {m}
  5.57695129776527, 0, 0,                 !- X,Y,Z Vertex 2 {m}
  5.57695129776527, 3.048, 0,             !- X,Y,Z Vertex 3 {m}
  5.57695129776527, 3.048, 2.4384;        !- X,Y,Z Vertex 4 {m}

OS:Surface,
  {701a99fa-1634-4602-a23e-dc14cf408d28}, !- Handle
  Surface 13,                             !- Name
  Wall,                                   !- Surface Type
  ,                                       !- Construction Name
  {7342d98c-b155-4307-a438-4924b4dc59f8}, !- Space Name
  Outdoors,                               !- Outside Boundary Condition
  ,                                       !- Outside Boundary Condition Object
  SunExposed,                             !- Sun Exposure
  WindExposed,                            !- Wind Exposure