!- NOTE: Auto-generated from /test/osw_files/SFD_2story_FB_UA_GRG_AC1_ElecBaseboard_FuelTankWH.osw

OS:Version,
  {8b8abbde-1364-4b60-9e6b-a9e199432929}, !- Handle
  3.2.1;                                  !- Version Identifier

OS:SimulationControl,
  {d441239a-e240-4bff-8431-4dafcc21c8c7}, !- Handle
  ,                                       !- Do Zone Sizing Calculation
  ,                                       !- Do System Sizing Calculation
  ,                                       !- Do Plant Sizing Calculation
  No;                                     !- Run Simulation for Sizing Periods

OS:Timestep,
  {79dfb3eb-f739-441e-8e8e-20dadfc52ebf}, !- Handle
  6;                                      !- Number of Timesteps per Hour

OS:ShadowCalculation,
  {1fbeab01-6e24-4fa5-8814-77d5c16c655c}, !- Handle
  PolygonClipping,                        !- Shading Calculation Method
  ,                                       !- Shading Calculation Update Frequency Method
  20,                                     !- Shading Calculation Update Frequency
  200,                                    !- Maximum Figures in Shadow Overlap Calculations
  ,                                       !- Polygon Clipping Algorithm
  512,                                    !- Pixel Counting Resolution
  DetailedSkyDiffuseModeling,             !- Sky Diffuse Modeling Algorithm
  No,                                     !- Output External Shading Calculation Results
  No,                                     !- Disable Self-Shading Within Shading Zone Groups
  No;                                     !- Disable Self-Shading From Shading Zone Groups to Other Zones

OS:SurfaceConvectionAlgorithm:Outside,
  {746d1aed-77e2-44f8-aa51-51500556f0d8}, !- Handle
  DOE-2;                                  !- Algorithm

OS:SurfaceConvectionAlgorithm:Inside,
  {c9677ccd-9272-46e4-9f34-58d26ae62953}, !- Handle
  TARP;                                   !- Algorithm

OS:ZoneCapacitanceMultiplier:ResearchSpecial,
  {df9088d7-f063-4162-9c83-81f3a721c8bd}, !- Handle
  ,                                       !- Temperature Capacity Multiplier
  15,                                     !- Humidity Capacity Multiplier
  ;                                       !- Carbon Dioxide Capacity Multiplier

OS:RunPeriod,
  {b28a7d0e-a38e-4802-b4ec-cefcf43d7542}, !- Handle
  Run Period 1,                           !- Name
  1,                                      !- Begin Month
  1,                                      !- Begin Day of Month
  12,                                     !- End Month
  31,                                     !- End Day of Month
  ,                                       !- Use Weather File Holidays and Special Days
  ,                                       !- Use Weather File Daylight Saving Period
  ,                                       !- Apply Weekend Holiday Rule
  ,                                       !- Use Weather File Rain Indicators
  ,                                       !- Use Weather File Snow Indicators
  ;                                       !- Number of Times Runperiod to be Repeated

OS:YearDescription,
  {8264d12d-053e-47d3-8104-592c086d27c9}, !- Handle
  2007,                                   !- Calendar Year
  ,                                       !- Day of Week for Start Day
  ;                                       !- Is Leap Year

OS:WeatherFile,
  {27ee3aa0-c9f7-4139-8ad0-afdbabe06e5c}, !- Handle
  Denver Intl Ap,                         !- City
  CO,                                     !- State Province Region
  USA,                                    !- Country
  TMY3,                                   !- Data Source
  725650,                                 !- WMO Number
  39.83,                                  !- Latitude {deg}
  -104.65,                                !- Longitude {deg}
  -7,                                     !- Time Zone {hr}
  1650,                                   !- Elevation {m}
  /mnt/c/git/resstock/resources/measures/HPXMLtoOpenStudio/weather/USA_CO_Denver.Intl.AP.725650_TMY3.epw, !- Url
  E23378AA;                               !- Checksum

OS:AdditionalProperties,
  {23e5c99a-708e-484d-9f38-af46edb326eb}, !- Handle
  {27ee3aa0-c9f7-4139-8ad0-afdbabe06e5c}, !- Object Name
  EPWHeaderCity,                          !- Feature Name 1
  String,                                 !- Feature Data Type 1
  Denver Intl Ap,                         !- Feature Value 1
  EPWHeaderState,                         !- Feature Name 2
  String,                                 !- Feature Data Type 2
  CO,                                     !- Feature Value 2
  EPWHeaderCountry,                       !- Feature Name 3
  String,                                 !- Feature Data Type 3
  USA,                                    !- Feature Value 3
  EPWHeaderDataSource,                    !- Feature Name 4
  String,                                 !- Feature Data Type 4
  TMY3,                                   !- Feature Value 4
  EPWHeaderStation,                       !- Feature Name 5
  String,                                 !- Feature Data Type 5
  725650,                                 !- Feature Value 5
  EPWHeaderLatitude,                      !- Feature Name 6
  Double,                                 !- Feature Data Type 6
  39.829999999999998,                     !- Feature Value 6
  EPWHeaderLongitude,                     !- Feature Name 7
  Double,                                 !- Feature Data Type 7
  -104.65000000000001,                    !- Feature Value 7
  EPWHeaderTimezone,                      !- Feature Name 8
  Double,                                 !- Feature Data Type 8
  -7,                                     !- Feature Value 8
  EPWHeaderAltitude,                      !- Feature Name 9
  Double,                                 !- Feature Data Type 9
  5413.3858267716532,                     !- Feature Value 9
  EPWHeaderLocalPressure,                 !- Feature Name 10
  Double,                                 !- Feature Data Type 10
  0.81937567683596546,                    !- Feature Value 10
  EPWHeaderRecordsPerHour,                !- Feature Name 11
  Double,                                 !- Feature Data Type 11
  0,                                      !- Feature Value 11
  EPWDataAnnualAvgDrybulb,                !- Feature Name 12
  Double,                                 !- Feature Data Type 12
  51.575616438356228,                     !- Feature Value 12
  EPWDataAnnualMinDrybulb,                !- Feature Name 13
  Double,                                 !- Feature Data Type 13
  -2.9200000000000017,                    !- Feature Value 13
  EPWDataAnnualMaxDrybulb,                !- Feature Name 14
  Double,                                 !- Feature Data Type 14
  104,                                    !- Feature Value 14
  EPWDataCDD50F,                          !- Feature Name 15
  Double,                                 !- Feature Data Type 15
  3072.2925000000005,                     !- Feature Value 15
  EPWDataCDD65F,                          !- Feature Name 16
  Double,                                 !- Feature Data Type 16
  883.62000000000035,                     !- Feature Value 16
  EPWDataHDD50F,                          !- Feature Name 17
  Double,                                 !- Feature Data Type 17
  2497.1925000000001,                     !- Feature Value 17
  EPWDataHDD65F,                          !- Feature Name 18
  Double,                                 !- Feature Data Type 18
  5783.5200000000013,                     !- Feature Value 18
  EPWDataAnnualAvgWindspeed,              !- Feature Name 19
  Double,                                 !- Feature Data Type 19
  3.9165296803649667,                     !- Feature Value 19
  EPWDataMonthlyAvgDrybulbs,              !- Feature Name 20
  String,                                 !- Feature Data Type 20
  33.4191935483871&#4431.90142857142857&#4443.02620967741937&#4442.48624999999999&#4459.877741935483854&#4473.57574999999997&#4472.07975806451608&#4472.70008064516134&#4466.49200000000006&#4450.079112903225806&#4437.218250000000005&#4434.582177419354835, !- Feature Value 20
  EPWDataGroundMonthlyTemps,              !- Feature Name 21
  String,                                 !- Feature Data Type 21
  44.08306285945173&#4440.89570904991865&#4440.64045432632048&#4442.153016571250646&#4448.225111118704206&#4454.268919273837525&#4459.508577937551024&#4462.82777283423508&#4463.10975667174995&#4460.41014950381947&#4455.304105212311526&#4449.445696474514364, !- Feature Value 21
  EPWDataWSF,                             !- Feature Name 22
  Double,                                 !- Feature Data Type 22
  0.58999999999999997,                    !- Feature Value 22
  EPWDataMonthlyAvgDailyHighDrybulbs,     !- Feature Name 23
  String,                                 !- Feature Data Type 23
  47.41032258064516&#4446.58642857142857&#4455.15032258064517&#4453.708&#4472.80193548387098&#4488.67600000000002&#4486.1858064516129&#4485.87225806451613&#4482.082&#4463.18064516129033&#4448.73400000000001&#4448.87935483870968, !- Feature Value 23
  EPWDataMonthlyAvgDailyLowDrybulbs,      !- Feature Name 24
  String,                                 !- Feature Data Type 24
  19.347741935483874&#4419.856428571428573&#4430.316129032258065&#4431.112&#4447.41612903225806&#4457.901999999999994&#4459.063870967741934&#4460.956774193548384&#4452.352000000000004&#4438.41612903225806&#4427.002000000000002&#4423.02903225806451, !- Feature Value 24
  EPWDesignHeatingDrybulb,                !- Feature Name 25
  Double,                                 !- Feature Data Type 25
  12.02,                                  !- Feature Value 25
  EPWDesignHeatingWindspeed,              !- Feature Name 26
  Double,                                 !- Feature Data Type 26
  2.8062500000000004,                     !- Feature Value 26
  EPWDesignCoolingDrybulb,                !- Feature Name 27
  Double,                                 !- Feature Data Type 27
  91.939999999999998,                     !- Feature Value 27
  EPWDesignCoolingWetbulb,                !- Feature Name 28
  Double,                                 !- Feature Data Type 28
  59.95131430195849,                      !- Feature Value 28
  EPWDesignCoolingHumidityRatio,          !- Feature Name 29
  Double,                                 !- Feature Data Type 29
  0.0059161086834698092,                  !- Feature Value 29
  EPWDesignCoolingWindspeed,              !- Feature Name 30
  Double,                                 !- Feature Data Type 30
  3.7999999999999989,                     !- Feature Value 30
  EPWDesignDailyTemperatureRange,         !- Feature Name 31
  Double,                                 !- Feature Data Type 31
  24.915483870967748,                     !- Feature Value 31
  EPWDesignDehumidDrybulb,                !- Feature Name 32
  Double,                                 !- Feature Data Type 32
  67.996785714285721,                     !- Feature Value 32
  EPWDesignDehumidHumidityRatio,          !- Feature Name 33
  Double,                                 !- Feature Data Type 33
  0.012133744170488724,                   !- Feature Value 33
  EPWDesignCoolingDirectNormal,           !- Feature Name 34
  Double,                                 !- Feature Data Type 34
  985,                                    !- Feature Value 34
  EPWDesignCoolingDiffuseHorizontal,      !- Feature Name 35
  Double,                                 !- Feature Data Type 35
  84;                                     !- Feature Value 35

OS:Site,
  {d2b6b9f3-d663-402b-8f52-badb94f6414a}, !- Handle
  Denver Intl Ap_CO_USA,                  !- Name
  39.83,                                  !- Latitude {deg}
  -104.65,                                !- Longitude {deg}
  -7,                                     !- Time Zone {hr}
  1650,                                   !- Elevation {m}
  Suburbs;                                !- Terrain

OS:ClimateZones,
  {e11f5971-3a62-4af8-ab8a-3b6e232a251e}, !- Handle
  Building America,                       !- Climate Zone Institution Name 1
  ,                                       !- Climate Zone Document Name 1
  0,                                      !- Climate Zone Document Year 1
  Cold;                                   !- Climate Zone Value 1

OS:Site:WaterMainsTemperature,
  {bb694f02-ad7b-421c-972c-e5c4d39bc44e}, !- Handle
  Correlation,                            !- Calculation Method
  ,                                       !- Temperature Schedule Name
  10.8753424657535,                       !- Annual Average Outdoor Air Temperature {C}
  23.1524007936508;                       !- Maximum Difference In Monthly Average Outdoor Air Temperatures {deltaC}

OS:RunPeriodControl:DaylightSavingTime,
  {36ae56ed-cb1d-4088-b7c2-7a562e85b964}, !- Handle
  3/12,                                   !- Start Date
  11/5;                                   !- End Date

OS:Site:GroundTemperature:Deep,
  {df70e6ef-281c-4008-a145-b499f338c735}, !- Handle
  10.8753424657535,                       !- January Deep Ground Temperature {C}
  10.8753424657535,                       !- February Deep Ground Temperature {C}
  10.8753424657535,                       !- March Deep Ground Temperature {C}
  10.8753424657535,                       !- April Deep Ground Temperature {C}
  10.8753424657535,                       !- May Deep Ground Temperature {C}
  10.8753424657535,                       !- June Deep Ground Temperature {C}
  10.8753424657535,                       !- July Deep Ground Temperature {C}
  10.8753424657535,                       !- August Deep Ground Temperature {C}
  10.8753424657535,                       !- September Deep Ground Temperature {C}
  10.8753424657535,                       !- October Deep Ground Temperature {C}
  10.8753424657535,                       !- November Deep Ground Temperature {C}
  10.8753424657535;                       !- December Deep Ground Temperature {C}

OS:Building,
  {9d3ba1a8-5aac-4cc3-bf35-60ef7b080106}, !- Handle
  Building 1,                             !- Name
  ,                                       !- Building Sector Type
  270,                                    !- North Axis {deg}
  ,                                       !- Nominal Floor to Floor Height {m}
  ,                                       !- Space Type Name
  ,                                       !- Default Construction Set Name
  ,                                       !- Default Schedule Set Name
  3,                                      !- Standards Number of Stories
  2,                                      !- Standards Number of Above Ground Stories
  ,                                       !- Standards Template
  singlefamilydetached,                   !- Standards Building Type
  1;                                      !- Standards Number of Living Units

OS:AdditionalProperties,
  {0b52ac79-5f94-4237-b8b1-7668317dd2df}, !- Handle
  {9d3ba1a8-5aac-4cc3-bf35-60ef7b080106}, !- Object Name
  Total Units Modeled,                    !- Feature Name 1
  Integer,                                !- Feature Data Type 1
  1,                                      !- Feature Value 1
  has_water_heater_flue,                  !- Feature Name 2
  Boolean,                                !- Feature Data Type 2
  true;                                   !- Feature Value 2

OS:ThermalZone,
  {be1152bf-7c60-492f-ba23-fef3b9863de0}, !- Handle
  living zone,                            !- Name
  ,                                       !- Multiplier
  ,                                       !- Ceiling Height {m}
  ,                                       !- Volume {m3}
  ,                                       !- Floor Area {m2}
  ,                                       !- Zone Inside Convection Algorithm
  ,                                       !- Zone Outside Convection Algorithm
  ,                                       !- Zone Conditioning Equipment List Name
  {90749cf6-ddf1-49c1-a25f-4cca24fc7f4d}, !- Zone Air Inlet Port List
  {59d16781-b369-4fcf-95a1-abbf3f5d7bff}, !- Zone Air Exhaust Port List
  {359b79d4-d410-47f6-9cb2-2f7656b26678}, !- Zone Air Node Name
  {6d4a13d7-ca2d-41d3-814e-f1bd2ce2b059}, !- Zone Return Air Port List
  ,                                       !- Primary Daylighting Control Name
  ,                                       !- Fraction of Zone Controlled by Primary Daylighting Control
  ,                                       !- Secondary Daylighting Control Name
  ,                                       !- Fraction of Zone Controlled by Secondary Daylighting Control
  ,                                       !- Illuminance Map Name
  ,                                       !- Group Rendering Name
  {1709a5df-02df-4b7d-9c91-8b99a46460f8}, !- Thermostat Name
  No;                                     !- Use Ideal Air Loads

OS:Node,
  {cc8fd071-f470-4da3-a112-1aae77db17d0}, !- Handle
  Node 1,                                 !- Name
  {359b79d4-d410-47f6-9cb2-2f7656b26678}, !- Inlet Port
  ;                                       !- Outlet Port

OS:Connection,
  {359b79d4-d410-47f6-9cb2-2f7656b26678}, !- Handle
  {be1152bf-7c60-492f-ba23-fef3b9863de0}, !- Source Object
  11,                                     !- Outlet Port
  {cc8fd071-f470-4da3-a112-1aae77db17d0}, !- Target Object
  2;                                      !- Inlet Port

OS:PortList,
  {90749cf6-ddf1-49c1-a25f-4cca24fc7f4d}, !- Handle
  {be1152bf-7c60-492f-ba23-fef3b9863de0}, !- HVAC Component
  {092d042e-96dd-4bbc-b5ce-ac8f67eaee10}; !- Port 1

OS:PortList,
  {59d16781-b369-4fcf-95a1-abbf3f5d7bff}, !- Handle
  {be1152bf-7c60-492f-ba23-fef3b9863de0}; !- HVAC Component

OS:PortList,
  {6d4a13d7-ca2d-41d3-814e-f1bd2ce2b059}, !- Handle
  {be1152bf-7c60-492f-ba23-fef3b9863de0}, !- HVAC Component
  {3dd5953d-2b90-4559-b59a-ed16fe4b748e}; !- Port 1

OS:Sizing:Zone,
  {821bd6ff-fabe-4af0-a61f-d456d358cce7}, !- Handle
  {be1152bf-7c60-492f-ba23-fef3b9863de0}, !- Zone or ZoneList Name
  SupplyAirTemperature,                   !- Zone Cooling Design Supply Air Temperature Input Method
  14,                                     !- Zone Cooling Design Supply Air Temperature {C}
  11.11,                                  !- Zone Cooling Design Supply Air Temperature Difference {deltaC}
  SupplyAirTemperature,                   !- Zone Heating Design Supply Air Temperature Input Method
  40,                                     !- Zone Heating Design Supply Air Temperature {C}
  11.11,                                  !- Zone Heating Design Supply Air Temperature Difference {deltaC}
  0.0085,                                 !- Zone Cooling Design Supply Air Humidity Ratio {kg-H2O/kg-air}
  0.008,                                  !- Zone Heating Design Supply Air Humidity Ratio {kg-H2O/kg-air}
  ,                                       !- Zone Heating Sizing Factor
  ,                                       !- Zone Cooling Sizing Factor
  DesignDay,                              !- Cooling Design Air Flow Method
  ,                                       !- Cooling Design Air Flow Rate {m3/s}
  ,                                       !- Cooling Minimum Air Flow per Zone Floor Area {m3/s-m2}
  ,                                       !- Cooling Minimum Air Flow {m3/s}
  ,                                       !- Cooling Minimum Air Flow Fraction
  DesignDay,                              !- Heating Design Air Flow Method
  ,                                       !- Heating Design Air Flow Rate {m3/s}
  ,                                       !- Heating Maximum Air Flow per Zone Floor Area {m3/s-m2}
  ,                                       !- Heating Maximum Air Flow {m3/s}
  ,                                       !- Heating Maximum Air Flow Fraction
  No,                                     !- Account for Dedicated Outdoor Air System
  NeutralSupplyAir,                       !- Dedicated Outdoor Air System Control Strategy
  autosize,                               !- Dedicated Outdoor Air Low Setpoint Temperature for Design {C}
  autosize;                               !- Dedicated Outdoor Air High Setpoint Temperature for Design {C}

OS:ZoneHVAC:EquipmentList,
  {846a1dcf-13a0-4662-ae48-9ca6947d48c7}, !- Handle
  Zone HVAC Equipment List 1,             !- Name
  {be1152bf-7c60-492f-ba23-fef3b9863de0}, !- Thermal Zone
  SequentialLoad,                         !- Load Distribution Scheme
  {41393856-c2d2-4929-a396-576ad89bbdcb}, !- Zone Equipment 1
  2,                                      !- Zone Equipment Cooling Sequence 1
  2,                                      !- Zone Equipment Heating or No-Load Sequence 1
  ,                                       !- Zone Equipment Sequential Cooling Fraction Schedule Name 1
  ,                                       !- Zone Equipment Sequential Heating Fraction Schedule Name 1
  {09c6407d-a5b9-4723-970e-29eff156a905}, !- Zone Equipment 2
  1,                                      !- Zone Equipment Cooling Sequence 2
  1,                                      !- Zone Equipment Heating or No-Load Sequence 2
  ,                                       !- Zone Equipment Sequential Cooling Fraction Schedule Name 2
  ;                                       !- Zone Equipment Sequential Heating Fraction Schedule Name 2

OS:ThermalZone,
  {d53d3da4-6682-4692-8a72-35c3bf2eb089}, !- Handle
  garage zone,                            !- Name
  ,                                       !- Multiplier
  ,                                       !- Ceiling Height {m}
  ,                                       !- Volume {m3}
  ,                                       !- Floor Area {m2}
  ,                                       !- Zone Inside Convection Algorithm
  ,                                       !- Zone Outside Convection Algorithm
  ,                                       !- Zone Conditioning Equipment List Name
  {2b1b767d-7f7c-4165-b8cd-c6058b6b88e2}, !- Zone Air Inlet Port List
  {0fc84fae-939a-40de-bb8f-912e699eff03}, !- Zone Air Exhaust Port List
  {89897965-a1d0-42aa-8c52-64a988185942}, !- Zone Air Node Name
  {ed0688cd-6061-46f2-98e3-2c189056415e}, !- Zone Return Air Port List
  ,                                       !- Primary Daylighting Control Name
  ,                                       !- Fraction of Zone Controlled by Primary Daylighting Control
  ,                                       !- Secondary Daylighting Control Name
  ,                                       !- Fraction of Zone Controlled by Secondary Daylighting Control
  ,                                       !- Illuminance Map Name
  ,                                       !- Group Rendering Name
  ,                                       !- Thermostat Name
  No;                                     !- Use Ideal Air Loads

OS:Node,
  {b6630280-3b8d-4325-8e54-a1f994281158}, !- Handle
  Node 2,                                 !- Name
  {89897965-a1d0-42aa-8c52-64a988185942}, !- Inlet Port
  ;                                       !- Outlet Port

OS:Connection,
  {89897965-a1d0-42aa-8c52-64a988185942}, !- Handle
  {d53d3da4-6682-4692-8a72-35c3bf2eb089}, !- Source Object
  11,                                     !- Outlet Port
  {b6630280-3b8d-4325-8e54-a1f994281158}, !- Target Object
  2;                                      !- Inlet Port

OS:PortList,
  {2b1b767d-7f7c-4165-b8cd-c6058b6b88e2}, !- Handle
  {d53d3da4-6682-4692-8a72-35c3bf2eb089}; !- HVAC Component

OS:PortList,
  {0fc84fae-939a-40de-bb8f-912e699eff03}, !- Handle
  {d53d3da4-6682-4692-8a72-35c3bf2eb089}; !- HVAC Component

OS:PortList,
  {ed0688cd-6061-46f2-98e3-2c189056415e}, !- Handle
  {d53d3da4-6682-4692-8a72-35c3bf2eb089}; !- HVAC Component

OS:Sizing:Zone,
  {a9da673f-eec3-44de-bba7-b974b8c5d553}, !- Handle
  {d53d3da4-6682-4692-8a72-35c3bf2eb089}, !- Zone or ZoneList Name
  SupplyAirTemperature,                   !- Zone Cooling Design Supply Air Temperature Input Method
  14,                                     !- Zone Cooling Design Supply Air Temperature {C}
  11.11,                                  !- Zone Cooling Design Supply Air Temperature Difference {deltaC}
  SupplyAirTemperature,                   !- Zone Heating Design Supply Air Temperature Input Method
  40,                                     !- Zone Heating Design Supply Air Temperature {C}
  11.11,                                  !- Zone Heating Design Supply Air Temperature Difference {deltaC}
  0.0085,                                 !- Zone Cooling Design Supply Air Humidity Ratio {kg-H2O/kg-air}
  0.008,                                  !- Zone Heating Design Supply Air Humidity Ratio {kg-H2O/kg-air}
  ,                                       !- Zone Heating Sizing Factor
  ,                                       !- Zone Cooling Sizing Factor
  DesignDay,                              !- Cooling Design Air Flow Method
  ,                                       !- Cooling Design Air Flow Rate {m3/s}
  ,                                       !- Cooling Minimum Air Flow per Zone Floor Area {m3/s-m2}
  ,                                       !- Cooling Minimum Air Flow {m3/s}
  ,                                       !- Cooling Minimum Air Flow Fraction
  DesignDay,                              !- Heating Design Air Flow Method
  ,                                       !- Heating Design Air Flow Rate {m3/s}
  ,                                       !- Heating Maximum Air Flow per Zone Floor Area {m3/s-m2}
  ,                                       !- Heating Maximum Air Flow {m3/s}
  ,                                       !- Heating Maximum Air Flow Fraction
  No,                                     !- Account for Dedicated Outdoor Air System
  NeutralSupplyAir,                       !- Dedicated Outdoor Air System Control Strategy
  autosize,                               !- Dedicated Outdoor Air Low Setpoint Temperature for Design {C}
  autosize;                               !- Dedicated Outdoor Air High Setpoint Temperature for Design {C}

OS:ZoneHVAC:EquipmentList,
  {65f7b698-cef1-4134-b05c-a84a98aeadc1}, !- Handle
  Zone HVAC Equipment List 2,             !- Name
  {d53d3da4-6682-4692-8a72-35c3bf2eb089}; !- Thermal Zone

OS:Space,
  {4b425068-33ce-4d12-9731-ad4fe07f4cf0}, !- Handle
  garage space,                           !- Name
  {dc694d91-b1c4-4b90-8676-378ec375069f}, !- Space Type Name
  ,                                       !- Default Construction Set Name
  ,                                       !- Default Schedule Set Name
  -0,                                     !- Direction of Relative North {deg}
  0,                                      !- X Origin {m}
  0,                                      !- Y Origin {m}
  0,                                      !- Z Origin {m}
  ,                                       !- Building Story Name
  {d53d3da4-6682-4692-8a72-35c3bf2eb089}; !- Thermal Zone Name

OS:Surface,
  {cd88b669-1c59-4feb-ba55-2f6e441f39c6}, !- Handle
  Surface 1,                              !- Name
  Floor,                                  !- Surface Type
  {211ceb16-7b83-4382-9fbd-5ca53151dd19}, !- Construction Name
  {4b425068-33ce-4d12-9731-ad4fe07f4cf0}, !- Space Name
  Foundation,                             !- Outside Boundary Condition
  {3c8b71a8-0ca2-4cba-8c1e-3402aa4a812e}, !- Outside Boundary Condition Object
  NoSun,                                  !- Sun Exposure
  NoWind,                                 !- Wind Exposure
  ,                                       !- View Factor to Ground
  ,                                       !- Number of Vertices
  12.4316830995045, -3.6576, 0,           !- X,Y,Z Vertex 1 {m}
  12.4316830995045, 3.6576, 0,            !- X,Y,Z Vertex 2 {m}
  16.0892830995045, 3.6576, 0,            !- X,Y,Z Vertex 3 {m}
  16.0892830995045, -3.6576, 0;           !- X,Y,Z Vertex 4 {m}

OS:Surface,
  {5236319a-f523-47ea-8453-bdec2e68b121}, !- Handle
  Surface 2,                              !- Name
  Wall,                                   !- Surface Type
  {683ebe4b-bcc8-47eb-9ba5-16b9ed7be7c6}, !- Construction Name
  {4b425068-33ce-4d12-9731-ad4fe07f4cf0}, !- Space Name
  Surface,                                !- Outside Boundary Condition
  {dd1049ad-1847-4090-994f-632ac465c16b}, !- Outside Boundary Condition Object
  NoSun,                                  !- Sun Exposure
  NoWind,                                 !- Wind Exposure
  ,                                       !- View Factor to Ground
  ,                                       !- Number of Vertices
  12.4316830995045, 3.6576, 2.4384,       !- X,Y,Z Vertex 1 {m}
  12.4316830995045, 3.6576, 0,            !- X,Y,Z Vertex 2 {m}
  12.4316830995045, 0, 0,                 !- X,Y,Z Vertex 3 {m}
  12.4316830995045, 0, 2.4384;            !- X,Y,Z Vertex 4 {m}

OS:Surface,
  {4be7283c-7a24-481c-9b87-2a1bcf5d1de8}, !- Handle
  Surface 3,                              !- Name
  Wall,                                   !- Surface Type
  {683ebe4b-bcc8-47eb-9ba5-16b9ed7be7c6}, !- Construction Name
  {4b425068-33ce-4d12-9731-ad4fe07f4cf0}, !- Space Name
  Surface,                                !- Outside Boundary Condition
  {563b3ee4-fa9b-41bf-b66b-01339ca991f5}, !- Outside Boundary Condition Object
  NoSun,                                  !- Sun Exposure
  NoWind,                                 !- Wind Exposure
  ,                                       !- View Factor to Ground
  ,                                       !- Number of Vertices
  16.0892830995045, 3.6576, 2.4384,       !- X,Y,Z Vertex 1 {m}
  16.0892830995045, 3.6576, 0,            !- X,Y,Z Vertex 2 {m}
  12.4316830995045, 3.6576, 0,            !- X,Y,Z Vertex 3 {m}
  12.4316830995045, 3.6576, 2.4384;       !- X,Y,Z Vertex 4 {m}

OS:Surface,