!- NOTE: Auto-generated from /test/osw_files/SFD_HVACSizing_Equip_GF_ACV_Autosize.osw

OS:Version,
  {0c4489db-f6ef-4f36-b970-d142976e1e26}, !- Handle
  2.9.1;                                  !- Version Identifier

OS:SimulationControl,
  {f4ab5120-9088-47bb-ae07-2d4fe41053ac}, !- Handle
  ,                                       !- Do Zone Sizing Calculation
  ,                                       !- Do System Sizing Calculation
  ,                                       !- Do Plant Sizing Calculation
  No;                                     !- Run Simulation for Sizing Periods

OS:Timestep,
  {dd18f10f-2f30-4c76-bcf4-f8f3bb13edba}, !- Handle
  6;                                      !- Number of Timesteps per Hour

OS:ShadowCalculation,
  {98da564f-a56c-47fb-b060-3c8c9c15185c}, !- Handle
  20,                                     !- Calculation Frequency
  200;                                    !- Maximum Figures in Shadow Overlap Calculations

OS:SurfaceConvectionAlgorithm:Outside,
  {89d75df6-e1c9-4b10-a055-13a89b36eecc}, !- Handle
  DOE-2;                                  !- Algorithm

OS:SurfaceConvectionAlgorithm:Inside,
  {441e6350-cec4-40ce-aac6-f99cb7563751}, !- Handle
  TARP;                                   !- Algorithm

OS:ZoneCapacitanceMultiplier:ResearchSpecial,
  {323cc777-155d-4c50-852c-99269245d445}, !- Handle
  ,                                       !- Temperature Capacity Multiplier
  15,                                     !- Humidity Capacity Multiplier
  ;                                       !- Carbon Dioxide Capacity Multiplier

OS:RunPeriod,
  {b3ac9b91-624e-457f-bf31-865c6be03954}, !- Handle
  Run Period 1,                           !- Name
  1,                                      !- Begin Month
  1,                                      !- Begin Day of Month
  12,                                     !- End Month
  31,                                     !- End Day of Month
  ,                                       !- Use Weather File Holidays and Special Days
  ,                                       !- Use Weather File Daylight Saving Period
  ,                                       !- Apply Weekend Holiday Rule
  ,                                       !- Use Weather File Rain Indicators
  ,                                       !- Use Weather File Snow Indicators
  ;                                       !- Number of Times Runperiod to be Repeated

OS:YearDescription,
  {ed751f7a-f197-43c3-9106-30721aed2bb5}, !- Handle
  2007,                                   !- Calendar Year
  ,                                       !- Day of Week for Start Day
  ;                                       !- Is Leap Year

OS:WeatherFile,
  {17202e80-f459-4c16-be75-eca9e0449f7f}, !- Handle
  Denver Intl Ap,                         !- City
  CO,                                     !- State Province Region
  USA,                                    !- Country
  TMY3,                                   !- Data Source
  725650,                                 !- WMO Number
  39.83,                                  !- Latitude {deg}
  -104.65,                                !- Longitude {deg}
  -7,                                     !- Time Zone {hr}
  1650,                                   !- Elevation {m}
  file:../weather/USA_CO_Denver.Intl.AP.725650_TMY3.epw, !- Url
  E23378AA;                               !- Checksum

OS:AdditionalProperties,
  {66d81a4d-15b2-4064-9970-fa4c51b0f22a}, !- Handle
  {17202e80-f459-4c16-be75-eca9e0449f7f}, !- Object Name
  EPWHeaderCity,                          !- Feature Name 1
  String,                                 !- Feature Data Type 1
  Denver Intl Ap,                         !- Feature Value 1
  EPWHeaderState,                         !- Feature Name 2
  String,                                 !- Feature Data Type 2
  CO,                                     !- Feature Value 2
  EPWHeaderCountry,                       !- Feature Name 3
  String,                                 !- Feature Data Type 3
  USA,                                    !- Feature Value 3
  EPWHeaderDataSource,                    !- Feature Name 4
  String,                                 !- Feature Data Type 4
  TMY3,                                   !- Feature Value 4
  EPWHeaderStation,                       !- Feature Name 5
  String,                                 !- Feature Data Type 5
  725650,                                 !- Feature Value 5
  EPWHeaderLatitude,                      !- Feature Name 6
  Double,                                 !- Feature Data Type 6
  39.829999999999998,                     !- Feature Value 6
  EPWHeaderLongitude,                     !- Feature Name 7
  Double,                                 !- Feature Data Type 7
  -104.65000000000001,                    !- Feature Value 7
  EPWHeaderTimezone,                      !- Feature Name 8
  Double,                                 !- Feature Data Type 8
  -7,                                     !- Feature Value 8
  EPWHeaderAltitude,                      !- Feature Name 9
  Double,                                 !- Feature Data Type 9
  5413.3858267716532,                     !- Feature Value 9
  EPWHeaderLocalPressure,                 !- Feature Name 10
  Double,                                 !- Feature Data Type 10
  0.81937567683596546,                    !- Feature Value 10
  EPWHeaderRecordsPerHour,                !- Feature Name 11
  Double,                                 !- Feature Data Type 11
  0,                                      !- Feature Value 11
  EPWDataAnnualAvgDrybulb,                !- Feature Name 12
  Double,                                 !- Feature Data Type 12
  51.575616438356228,                     !- Feature Value 12
  EPWDataAnnualMinDrybulb,                !- Feature Name 13
  Double,                                 !- Feature Data Type 13
  -2.9200000000000017,                    !- Feature Value 13
  EPWDataAnnualMaxDrybulb,                !- Feature Name 14
  Double,                                 !- Feature Data Type 14
  104,                                    !- Feature Value 14
  EPWDataCDD50F,                          !- Feature Name 15
  Double,                                 !- Feature Data Type 15
  3072.2925000000005,                     !- Feature Value 15
  EPWDataCDD65F,                          !- Feature Name 16
  Double,                                 !- Feature Data Type 16
  883.62000000000035,                     !- Feature Value 16
  EPWDataHDD50F,                          !- Feature Name 17
  Double,                                 !- Feature Data Type 17
  2497.1925000000001,                     !- Feature Value 17
  EPWDataHDD65F,                          !- Feature Name 18
  Double,                                 !- Feature Data Type 18
  5783.5200000000013,                     !- Feature Value 18
  EPWDataAnnualAvgWindspeed,              !- Feature Name 19
  Double,                                 !- Feature Data Type 19
  3.9165296803649667,                     !- Feature Value 19
  EPWDataMonthlyAvgDrybulbs,              !- Feature Name 20
  String,                                 !- Feature Data Type 20
  33.4191935483871&#4431.90142857142857&#4443.02620967741937&#4442.48624999999999&#4459.877741935483854&#4473.57574999999997&#4472.07975806451608&#4472.70008064516134&#4466.49200000000006&#4450.079112903225806&#4437.218250000000005&#4434.582177419354835, !- Feature Value 20
  EPWDataGroundMonthlyTemps,              !- Feature Name 21
  String,                                 !- Feature Data Type 21
  44.08306285945173&#4440.89570904991865&#4440.64045432632048&#4442.153016571250646&#4448.225111118704206&#4454.268919273837525&#4459.508577937551024&#4462.82777283423508&#4463.10975667174995&#4460.41014950381947&#4455.304105212311526&#4449.445696474514364, !- Feature Value 21
  EPWDataWSF,                             !- Feature Name 22
  Double,                                 !- Feature Data Type 22
  0.58999999999999997,                    !- Feature Value 22
  EPWDataMonthlyAvgDailyHighDrybulbs,     !- Feature Name 23
  String,                                 !- Feature Data Type 23
  47.41032258064516&#4446.58642857142857&#4455.15032258064517&#4453.708&#4472.80193548387098&#4488.67600000000002&#4486.1858064516129&#4485.87225806451613&#4482.082&#4463.18064516129033&#4448.73400000000001&#4448.87935483870968, !- Feature Value 23
  EPWDataMonthlyAvgDailyLowDrybulbs,      !- Feature Name 24
  String,                                 !- Feature Data Type 24
  19.347741935483874&#4419.856428571428573&#4430.316129032258065&#4431.112&#4447.41612903225806&#4457.901999999999994&#4459.063870967741934&#4460.956774193548384&#4452.352000000000004&#4438.41612903225806&#4427.002000000000002&#4423.02903225806451, !- Feature Value 24
  EPWDesignHeatingDrybulb,                !- Feature Name 25
  Double,                                 !- Feature Data Type 25
  12.02,                                  !- Feature Value 25
  EPWDesignHeatingWindspeed,              !- Feature Name 26
  Double,                                 !- Feature Data Type 26
  2.8062500000000004,                     !- Feature Value 26
  EPWDesignCoolingDrybulb,                !- Feature Name 27
  Double,                                 !- Feature Data Type 27
  91.939999999999998,                     !- Feature Value 27
  EPWDesignCoolingWetbulb,                !- Feature Name 28
  Double,                                 !- Feature Data Type 28
  59.95131430195849,                      !- Feature Value 28
  EPWDesignCoolingHumidityRatio,          !- Feature Name 29
  Double,                                 !- Feature Data Type 29
  0.0059161086834698092,                  !- Feature Value 29
  EPWDesignCoolingWindspeed,              !- Feature Name 30
  Double,                                 !- Feature Data Type 30
  3.7999999999999989,                     !- Feature Value 30
  EPWDesignDailyTemperatureRange,         !- Feature Name 31
  Double,                                 !- Feature Data Type 31
  24.915483870967748,                     !- Feature Value 31
  EPWDesignDehumidDrybulb,                !- Feature Name 32
  Double,                                 !- Feature Data Type 32
  67.996785714285721,                     !- Feature Value 32
  EPWDesignDehumidHumidityRatio,          !- Feature Name 33
  Double,                                 !- Feature Data Type 33
  0.012133744170488724,                   !- Feature Value 33
  EPWDesignCoolingDirectNormal,           !- Feature Name 34
  Double,                                 !- Feature Data Type 34
  985,                                    !- Feature Value 34
  EPWDesignCoolingDiffuseHorizontal,      !- Feature Name 35
  Double,                                 !- Feature Data Type 35
  84;                                     !- Feature Value 35

OS:Site,
  {e0525e5c-6349-4073-a64e-b8d4e0479fba}, !- Handle
  Denver Intl Ap_CO_USA,                  !- Name
  39.83,                                  !- Latitude {deg}
  -104.65,                                !- Longitude {deg}
  -7,                                     !- Time Zone {hr}
  1650,                                   !- Elevation {m}
  ;                                       !- Terrain

OS:ClimateZones,
  {ee57fba1-cb79-45c8-8ea6-82ef9da0a8f8}, !- Handle
  ,                                       !- Active Institution
  ,                                       !- Active Year
  ,                                       !- Climate Zone Institution Name 1
  ,                                       !- Climate Zone Document Name 1
  ,                                       !- Climate Zone Document Year 1
  ,                                       !- Climate Zone Value 1
  Building America,                       !- Climate Zone Institution Name 2
  ,                                       !- Climate Zone Document Name 2
  0,                                      !- Climate Zone Document Year 2
  Cold;                                   !- Climate Zone Value 2

OS:Site:WaterMainsTemperature,
  {1c4013d3-707d-4ec1-8bf3-8b476001b11c}, !- Handle
  Correlation,                            !- Calculation Method
  ,                                       !- Temperature Schedule Name
  10.8753424657535,                       !- Annual Average Outdoor Air Temperature {C}
  23.1524007936508;                       !- Maximum Difference In Monthly Average Outdoor Air Temperatures {deltaC}

OS:RunPeriodControl:DaylightSavingTime,
  {9985f0c4-5f8d-4c93-bf63-01ddf6aa1ff8}, !- Handle
  4/7,                                    !- Start Date
  10/26;                                  !- End Date

OS:Site:GroundTemperature:Deep,
  {eafba9a9-d799-450c-8efb-71d8afbe038a}, !- Handle
  10.8753424657535,                       !- January Deep Ground Temperature {C}
  10.8753424657535,                       !- February Deep Ground Temperature {C}
  10.8753424657535,                       !- March Deep Ground Temperature {C}
  10.8753424657535,                       !- April Deep Ground Temperature {C}
  10.8753424657535,                       !- May Deep Ground Temperature {C}
  10.8753424657535,                       !- June Deep Ground Temperature {C}
  10.8753424657535,                       !- July Deep Ground Temperature {C}
  10.8753424657535,                       !- August Deep Ground Temperature {C}
  10.8753424657535,                       !- September Deep Ground Temperature {C}
  10.8753424657535,                       !- October Deep Ground Temperature {C}
  10.8753424657535,                       !- November Deep Ground Temperature {C}
  10.8753424657535;                       !- December Deep Ground Temperature {C}

OS:ThermalZone,
  {7a4688ea-a512-4633-b14b-82580d1acd9b}, !- Handle
  living zone,                            !- Name
  ,                                       !- Multiplier
  ,                                       !- Ceiling Height {m}
  ,                                       !- Volume {m3}
  ,                                       !- Floor Area {m2}
  ,                                       !- Zone Inside Convection Algorithm
  ,                                       !- Zone Outside Convection Algorithm
  ,                                       !- Zone Conditioning Equipment List Name
  {81864061-c029-41f5-bed3-51dc5222ba8f}, !- Zone Air Inlet Port List
  {7c3fc94a-2922-43ea-a413-fef99beff2e4}, !- Zone Air Exhaust Port List
  {34dac22b-16f2-40a5-a3a0-5c60aec6b862}, !- Zone Air Node Name
  {a563b260-2989-4e0d-b66d-681a32299bb2}, !- Zone Return Air Port List
  ,                                       !- Primary Daylighting Control Name
  ,                                       !- Fraction of Zone Controlled by Primary Daylighting Control
  ,                                       !- Secondary Daylighting Control Name
  ,                                       !- Fraction of Zone Controlled by Secondary Daylighting Control
  ,                                       !- Illuminance Map Name
  ,                                       !- Group Rendering Name
  ,                                       !- Thermostat Name
  No;                                     !- Use Ideal Air Loads

OS:Node,
  {28838e64-553f-4983-a958-5b7b3b3ba015}, !- Handle
  Node 1,                                 !- Name
  {34dac22b-16f2-40a5-a3a0-5c60aec6b862}, !- Inlet Port
  ;                                       !- Outlet Port

OS:Connection,
  {34dac22b-16f2-40a5-a3a0-5c60aec6b862}, !- Handle
  {e7152d1f-b2d2-417b-b481-34bd732a3da0}, !- Name
  {7a4688ea-a512-4633-b14b-82580d1acd9b}, !- Source Object
  11,                                     !- Outlet Port
  {28838e64-553f-4983-a958-5b7b3b3ba015}, !- Target Object
  2;                                      !- Inlet Port

OS:PortList,
  {81864061-c029-41f5-bed3-51dc5222ba8f}, !- Handle
  {e9f46f12-6bad-48d9-8af8-60a29c2ed5ec}, !- Name
  {7a4688ea-a512-4633-b14b-82580d1acd9b}; !- HVAC Component

OS:PortList,
  {7c3fc94a-2922-43ea-a413-fef99beff2e4}, !- Handle
  {5a82ebbe-d671-4f39-b152-52e7a1990909}, !- Name
  {7a4688ea-a512-4633-b14b-82580d1acd9b}; !- HVAC Component

OS:PortList,
  {a563b260-2989-4e0d-b66d-681a32299bb2}, !- Handle
  {f15e403d-9be4-4785-9605-bea5bc675ba8}, !- Name
  {7a4688ea-a512-4633-b14b-82580d1acd9b}; !- HVAC Component

OS:Sizing:Zone,
  {7cbdb064-b4a0-42ba-8bf8-6d1b3f06f8c3}, !- Handle
  {7a4688ea-a512-4633-b14b-82580d1acd9b}, !- Zone or ZoneList Name
  SupplyAirTemperature,                   !- Zone Cooling Design Supply Air Temperature Input Method
  14,                                     !- Zone Cooling Design Supply Air Temperature {C}
  11.11,                                  !- Zone Cooling Design Supply Air Temperature Difference {deltaC}
  SupplyAirTemperature,                   !- Zone Heating Design Supply Air Temperature Input Method
  40,                                     !- Zone Heating Design Supply Air Temperature {C}
  11.11,                                  !- Zone Heating Design Supply Air Temperature Difference {deltaC}
  0.0085,                                 !- Zone Cooling Design Supply Air Humidity Ratio {kg-H2O/kg-air}
  0.008,                                  !- Zone Heating Design Supply Air Humidity Ratio {kg-H2O/kg-air}
  ,                                       !- Zone Heating Sizing Factor
  ,                                       !- Zone Cooling Sizing Factor
  DesignDay,                              !- Cooling Design Air Flow Method
  ,                                       !- Cooling Design Air Flow Rate {m3/s}
  ,                                       !- Cooling Minimum Air Flow per Zone Floor Area {m3/s-m2}
  ,                                       !- Cooling Minimum Air Flow {m3/s}
  ,                                       !- Cooling Minimum Air Flow Fraction
  DesignDay,                              !- Heating Design Air Flow Method
  ,                                       !- Heating Design Air Flow Rate {m3/s}
  ,                                       !- Heating Maximum Air Flow per Zone Floor Area {m3/s-m2}
  ,                                       !- Heating Maximum Air Flow {m3/s}
  ,                                       !- Heating Maximum Air Flow Fraction
  ,                                       !- Design Zone Air Distribution Effectiveness in Cooling Mode
  ,                                       !- Design Zone Air Distribution Effectiveness in Heating Mode
  No,                                     !- Account for Dedicated Outdoor Air System
  NeutralSupplyAir,                       !- Dedicated Outdoor Air System Control Strategy
  autosize,                               !- Dedicated Outdoor Air Low Setpoint Temperature for Design {C}
  autosize;                               !- Dedicated Outdoor Air High Setpoint Temperature for Design {C}

OS:ZoneHVAC:EquipmentList,
  {40bf836c-c27c-4aef-9e19-cc27c7371dcc}, !- Handle
  Zone HVAC Equipment List 1,             !- Name
  {7a4688ea-a512-4633-b14b-82580d1acd9b}; !- Thermal Zone

OS:ThermalZone,
  {7579bb43-0108-43b3-8192-4eeebd21fe7f}, !- Handle
  garage zone,                            !- Name
  ,                                       !- Multiplier
  ,                                       !- Ceiling Height {m}
  ,                                       !- Volume {m3}
  ,                                       !- Floor Area {m2}
  ,                                       !- Zone Inside Convection Algorithm
  ,                                       !- Zone Outside Convection Algorithm
  ,                                       !- Zone Conditioning Equipment List Name
  {9d3627dd-48ac-4181-ac51-911220f70f50}, !- Zone Air Inlet Port List
  {e3b122d4-216d-48e4-826d-f38e93aa788f}, !- Zone Air Exhaust Port List
  {6e271703-c99c-4f5a-9103-0bd3222e5605}, !- Zone Air Node Name
  {c2f90438-a39a-4996-83c5-3027b7b7c79f}, !- Zone Return Air Port List
  ,                                       !- Primary Daylighting Control Name
  ,                                       !- Fraction of Zone Controlled by Primary Daylighting Control
  ,                                       !- Secondary Daylighting Control Name
  ,                                       !- Fraction of Zone Controlled by Secondary Daylighting Control
  ,                                       !- Illuminance Map Name
  ,                                       !- Group Rendering Name
  ,                                       !- Thermostat Name
  No;                                     !- Use Ideal Air Loads

OS:Node,
  {8925e077-1936-4c75-9934-19ee7c937f1c}, !- Handle
  Node 2,                                 !- Name
  {6e271703-c99c-4f5a-9103-0bd3222e5605}, !- Inlet Port
  ;                                       !- Outlet Port

OS:Connection,
  {6e271703-c99c-4f5a-9103-0bd3222e5605}, !- Handle
  {5f7f0644-b9ce-4c55-a6c1-3c1f3f7dfb4b}, !- Name
  {7579bb43-0108-43b3-8192-4eeebd21fe7f}, !- Source Object
  11,                                     !- Outlet Port
  {8925e077-1936-4c75-9934-19ee7c937f1c}, !- Target Object
  2;                                      !- Inlet Port

OS:PortList,
  {9d3627dd-48ac-4181-ac51-911220f70f50}, !- Handle
  {ee6ee40b-21d7-4f77-9daa-9cf8a31c9beb}, !- Name
  {7579bb43-0108-43b3-8192-4eeebd21fe7f}; !- HVAC Component

OS:PortList,
  {e3b122d4-216d-48e4-826d-f38e93aa788f}, !- Handle
  {32a0544a-c49a-4782-aa4b-565cbbb0c7ca}, !- Name
  {7579bb43-0108-43b3-8192-4eeebd21fe7f}; !- HVAC Component

OS:PortList,
  {c2f90438-a39a-4996-83c5-3027b7b7c79f}, !- Handle
  {4cea0c4c-2ce3-4dd6-bdda-0956c9322fd0}, !- Name
  {7579bb43-0108-43b3-8192-4eeebd21fe7f}; !- HVAC Component

OS:Sizing:Zone,
  {decd7211-42ce-4031-98c9-61414dec6a64}, !- Handle
  {7579bb43-0108-43b3-8192-4eeebd21fe7f}, !- Zone or ZoneList Name
  SupplyAirTemperature,                   !- Zone Cooling Design Supply Air Temperature Input Method
  14,                                     !- Zone Cooling Design Supply Air Temperature {C}
  11.11,                                  !- Zone Cooling Design Supply Air Temperature Difference {deltaC}
  SupplyAirTemperature,                   !- Zone Heating Design Supply Air Temperature Input Method
  40,                                     !- Zone Heating Design Supply Air Temperature {C}
  11.11,                                  !- Zone Heating Design Supply Air Temperature Difference {deltaC}
  0.0085,                                 !- Zone Cooling Design Supply Air Humidity Ratio {kg-H2O/kg-air}
  0.008,                                  !- Zone Heating Design Supply Air Humidity Ratio {kg-H2O/kg-air}
  ,                                       !- Zone Heating Sizing Factor
  ,                                       !- Zone Cooling Sizing Factor
  DesignDay,                              !- Cooling Design Air Flow Method
  ,                                       !- Cooling Design Air Flow Rate {m3/s}
  ,                                       !- Cooling Minimum Air Flow per Zone Floor Area {m3/s-m2}
  ,                                       !- Cooling Minimum Air Flow {m3/s}
  ,                                       !- Cooling Minimum Air Flow Fraction
  DesignDay,                              !- Heating Design Air Flow Method
  ,                                       !- Heating Design Air Flow Rate {m3/s}
  ,                                       !- Heating Maximum Air Flow per Zone Floor Area {m3/s-m2}
  ,                                       !- Heating Maximum Air Flow {m3/s}
  ,                                       !- Heating Maximum Air Flow Fraction
  ,                                       !- Design Zone Air Distribution Effectiveness in Cooling Mode
  ,                                       !- Design Zone Air Distribution Effectiveness in Heating Mode
  No,                                     !- Account for Dedicated Outdoor Air System
  NeutralSupplyAir,                       !- Dedicated Outdoor Air System Control Strategy
  autosize,                               !- Dedicated Outdoor Air Low Setpoint Temperature for Design {C}
  autosize;                               !- Dedicated Outdoor Air High Setpoint Temperature for Design {C}

OS:ZoneHVAC:EquipmentList,
  {9b8ffe6f-ea4a-42a7-84c8-338ed4f99a6d}, !- Handle
  Zone HVAC Equipment List 2,             !- Name
  {7579bb43-0108-43b3-8192-4eeebd21fe7f}; !- Thermal Zone

OS:Space,
  {642bc055-ebe0-4fb0-b1f7-6d7bf6a3bb8b}, !- Handle
  garage space,                           !- Name
  {50d49814-7ae0-490a-b76d-ceecca705e11}, !- Space Type Name
  ,                                       !- Default Construction Set Name
  ,                                       !- Default Schedule Set Name
  -0,                                     !- Direction of Relative North {deg}
  0,                                      !- X Origin {m}
  0,                                      !- Y Origin {m}
  0,                                      !- Z Origin {m}
  ,                                       !- Building Story Name
  {7579bb43-0108-43b3-8192-4eeebd21fe7f}; !- Thermal Zone Name

OS:Surface,
  {84a81fad-38cb-4785-a0b1-9b27e1f5427c}, !- Handle
  Surface 1,                              !- Name
  Floor,                                  !- Surface Type
  {796bb32c-79f9-4983-abc7-f0076aa010ed}, !- Construction Name
  {642bc055-ebe0-4fb0-b1f7-6d7bf6a3bb8b}, !- Space Name
  Foundation,                             !- Outside Boundary Condition
  {b53cc786-0575-4958-832e-783893cf458b}, !- Outside Boundary Condition Object
  NoSun,                                  !- Sun Exposure
  NoWind,                                 !- Wind Exposure
  ,                                       !- View Factor to Ground
  ,                                       !- Number of Vertices
  8.91701625975123, -3.048, 0,            !- X,Y,Z Vertex 1 {m}
  8.91701625975123, 3.048, 0,             !- X,Y,Z Vertex 2 {m}
  12.5746162597512, 3.048, 0,             !- X,Y,Z Vertex 3 {m}
  12.5746162597512, -3.048, 0;            !- X,Y,Z Vertex 4 {m}

OS:Surface,
  {baf2fd98-d2ef-4ad2-94ec-ee26df02f0a4}, !- Handle
  Surface 2,                              !- Name
  Wall,                                   !- Surface Type
  {1b60a43d-816a-4e05-b818-1c6cf99d61e2}, !- Construction Name
  {642bc055-ebe0-4fb0-b1f7-6d7bf6a3bb8b}, !- Space Name
  Surface,                                !- Outside Boundary Condition
  {9079d6b5-2bd8-418a-a638-edb025a0a0f5}, !- Outside Boundary Condition Object
  NoSun,                                  !- Sun Exposure
  NoWind,                                 !- Wind Exposure
  ,                                       !- View Factor to Ground
  ,                                       !- Number of Vertices
  8.91701625975123, 3.048, 2.4384,        !- X,Y,Z Vertex 1 {m}
  8.91701625975123, 3.048, 0,             !- X,Y,Z Vertex 2 {m}
  8.91701625975123, 0, 0,                 !- X,Y,Z Vertex 3 {m}
  8.91701625975123, 0, 2.4384;            !- X,Y,Z Vertex 4 {m}

OS:Surface,
  {890d1cb1-3c4a-464a-b560-c973ab285439}, !- Handle
  Surface 3,                              !- Name
  Wall,                                   !- Surface Type
  {1b60a43d-816a-4e05-b818-1c6cf99d61e2}, !- Construction Name
  {642bc055-ebe0-4fb0-b1f7-6d7bf6a3bb8b}, !- Space Name
  Surface,                                !- Outside Boundary Condition
  {2c905218-12e4-4086-bd53-d161c5743d09}, !- Outside Boundary Condition Object
  NoSun,                                  !- Sun Exposure
  NoWind,                                 !- Wind Exposure
  ,                                       !- View Factor to Ground
  ,                                       !- Number of Vertices
  12.5746162597512, 3.048, 2.4384,        !- X,Y,Z Vertex 1 {m}
  12.5746162597512, 3.048, 0,             !- X,Y,Z Vertex 2 {m}
  8.91701625975123, 3.048, 0,             !- X,Y,Z Vertex 3 {m}
  8.91701625975123, 3.048, 2.4384;        !- X,Y,Z Vertex 4 {m}

OS:Surface,
  {63fe9994-579b-4771-afa1-7b6f8044cbd3}, !- Handle
  Surface 4,                              !- Name
  Wall,                                   !- Surface Type
  {8358db2b-debb-4609-bff9-a6b0c8909c81}, !- Construction Name
  {642bc055-ebe0-4fb0-b1f7-6d7bf6a3bb8b}, !- Space Name
  Outdoors,                               !- Outside Boundary Condition
  ,                                       !- Outside Boundary Condition Object
  SunExposed,                             !- Sun Exposure
  WindExposed,                            !- Wind Exposure
  ,                                       !- View Factor to Ground
  ,                                       !- Number of Vertices
  12.5746162597512, -3.048, 2.4384,       !- X,Y,Z Vertex 1 {m}
  12.5746162597512, -3.048, 0,            !- X,Y,Z Vertex 2 {m}
  12.5746162597512, 3.048, 0,             !- X,Y,Z Vertex 3 {m}
  12.5746162597512, 3.048, 2.4384;        !- X,Y,Z Vertex 4 {m}

OS:Surface,
  {1501bc6d-07a6-4993-8d3e-f8b0e6cfd3ac}, !- Handle
  Surface 5,                              !- Name
  Wall,                                   !- Surface Type
  {8358db2b-debb-4609-bff9-a6b0c8909c81}, !- Construction Name
  {642bc055-ebe0-4fb0-b1f7-6d7bf6a3bb8b}, !- Space Name
  Outdoors,                               !- Outside Boundary Condition
  ,                                       !- Outside Boundary Condition Object
  SunExposed,                             !- Sun Exposure
  WindExposed,                            !- Wind Exposure
  ,                                       !- View Factor to Ground
  ,                                       !- Number of Vertices
  8.91701625975123, -3.048, 2.4384,       !- X,Y,Z Vertex 1 {m}
  8.91701625975123, -3.048, 0,            !- X,Y,Z Vertex 2 {m}
  12.5746162597512, -3.048, 0,            !- X,Y,Z Vertex 3 {m}
  12.5746162597512, -3.048, 2.4384;       !- X,Y,Z Vertex 4 {m}

OS:Surface,
  {1ad5ca36-a603-4e24-9f69-b5c24e9106dc}, !- Handle
  Surface 6,                              !- Name