!- NOTE: Auto-generated from /test/osw_files/SFD_2000sqft_2story_FB_GRG_UA_3Beds_2Baths.osw

OS:Version,
  {d95b37c0-92fc-42a8-a3fe-ae839bdbabfb}, !- Handle
  2.8.1;                                  !- Version Identifier

OS:SimulationControl,
  {7c3ffb84-cc37-412b-ad37-31c8eb4107d9}, !- Handle
  ,                                       !- Do Zone Sizing Calculation
  ,                                       !- Do System Sizing Calculation
  ,                                       !- Do Plant Sizing Calculation
  No;                                     !- Run Simulation for Sizing Periods

OS:Timestep,
  {6930c8b4-1b55-46cd-a8d7-01cf4d506124}, !- Handle
  6;                                      !- Number of Timesteps per Hour

OS:ShadowCalculation,
  {06a183f3-109e-4560-a9e1-19d61e2bc775}, !- Handle
  20,                                     !- Calculation Frequency
  200;                                    !- Maximum Figures in Shadow Overlap Calculations

OS:SurfaceConvectionAlgorithm:Outside,
  {5e093520-b294-45b1-99b3-4a62cdbd5d85}, !- Handle
  DOE-2;                                  !- Algorithm

OS:SurfaceConvectionAlgorithm:Inside,
  {a4c86ee2-6ac9-4d29-924e-ba40d354b7a0}, !- Handle
  TARP;                                   !- Algorithm

OS:ZoneCapacitanceMultiplier:ResearchSpecial,
  {ed0d8d18-33e3-4e1b-83ef-24e70c2e741c}, !- Handle
  ,                                       !- Temperature Capacity Multiplier
  15,                                     !- Humidity Capacity Multiplier
  ;                                       !- Carbon Dioxide Capacity Multiplier

OS:RunPeriod,
  {7afc08cd-f853-44c2-bec2-52956a55a321}, !- Handle
  Run Period 1,                           !- Name
  1,                                      !- Begin Month
  1,                                      !- Begin Day of Month
  12,                                     !- End Month
  31,                                     !- End Day of Month
  ,                                       !- Use Weather File Holidays and Special Days
  ,                                       !- Use Weather File Daylight Saving Period
  ,                                       !- Apply Weekend Holiday Rule
  ,                                       !- Use Weather File Rain Indicators
  ,                                       !- Use Weather File Snow Indicators
  ;                                       !- Number of Times Runperiod to be Repeated

OS:YearDescription,
  {7fec4d92-4105-4fdf-ad46-0e043bdb40f0}, !- Handle
  2007,                                   !- Calendar Year
  ,                                       !- Day of Week for Start Day
  ;                                       !- Is Leap Year

OS:ThermalZone,
  {8449039b-4e9b-4c66-a4a9-dbe474238e66}, !- Handle
  living zone,                            !- Name
  ,                                       !- Multiplier
  ,                                       !- Ceiling Height {m}
  ,                                       !- Volume {m3}
  ,                                       !- Floor Area {m2}
  ,                                       !- Zone Inside Convection Algorithm
  ,                                       !- Zone Outside Convection Algorithm
  ,                                       !- Zone Conditioning Equipment List Name
  {849d1c06-9ac1-4305-8297-9e258271ac63}, !- Zone Air Inlet Port List
  {b5b03003-8027-40ae-8467-6773413a5bae}, !- Zone Air Exhaust Port List
  {933d6c08-34e2-4599-b002-70147469dd94}, !- Zone Air Node Name
  {bdc06199-3c4b-4f5b-a9d3-79b5648ef4af}, !- Zone Return Air Port List
  ,                                       !- Primary Daylighting Control Name
  ,                                       !- Fraction of Zone Controlled by Primary Daylighting Control
  ,                                       !- Secondary Daylighting Control Name
  ,                                       !- Fraction of Zone Controlled by Secondary Daylighting Control
  ,                                       !- Illuminance Map Name
  ,                                       !- Group Rendering Name
  ,                                       !- Thermostat Name
  No;                                     !- Use Ideal Air Loads

OS:Node,
  {9e3ae503-253e-43fa-8e46-99195d868043}, !- Handle
  Node 1,                                 !- Name
  {933d6c08-34e2-4599-b002-70147469dd94}, !- Inlet Port
  ;                                       !- Outlet Port

OS:Connection,
  {933d6c08-34e2-4599-b002-70147469dd94}, !- Handle
  {9c07d1ec-dcef-4a09-b426-f32f1746e6dc}, !- Name
  {8449039b-4e9b-4c66-a4a9-dbe474238e66}, !- Source Object
  11,                                     !- Outlet Port
  {9e3ae503-253e-43fa-8e46-99195d868043}, !- Target Object
  2;                                      !- Inlet Port

OS:PortList,
  {849d1c06-9ac1-4305-8297-9e258271ac63}, !- Handle
  {7af9399e-a847-41dd-8f45-10061c051849}, !- Name
  {8449039b-4e9b-4c66-a4a9-dbe474238e66}; !- HVAC Component

OS:PortList,
  {b5b03003-8027-40ae-8467-6773413a5bae}, !- Handle
  {64597c83-eb66-4b89-9850-a03761b2b743}, !- Name
  {8449039b-4e9b-4c66-a4a9-dbe474238e66}; !- HVAC Component

OS:PortList,
  {bdc06199-3c4b-4f5b-a9d3-79b5648ef4af}, !- Handle
  {83f4584c-2ac6-40ad-a124-c103b726eb92}, !- Name
  {8449039b-4e9b-4c66-a4a9-dbe474238e66}; !- HVAC Component

OS:Sizing:Zone,
  {aa30eeae-3d13-42c5-bae0-ec0ac9eafe54}, !- Handle
  {8449039b-4e9b-4c66-a4a9-dbe474238e66}, !- Zone or ZoneList Name
  SupplyAirTemperature,                   !- Zone Cooling Design Supply Air Temperature Input Method
  14,                                     !- Zone Cooling Design Supply Air Temperature {C}
  11.11,                                  !- Zone Cooling Design Supply Air Temperature Difference {deltaC}
  SupplyAirTemperature,                   !- Zone Heating Design Supply Air Temperature Input Method
  40,                                     !- Zone Heating Design Supply Air Temperature {C}
  11.11,                                  !- Zone Heating Design Supply Air Temperature Difference {deltaC}
  0.0085,                                 !- Zone Cooling Design Supply Air Humidity Ratio {kg-H2O/kg-air}
  0.008,                                  !- Zone Heating Design Supply Air Humidity Ratio {kg-H2O/kg-air}
  ,                                       !- Zone Heating Sizing Factor
  ,                                       !- Zone Cooling Sizing Factor
  DesignDay,                              !- Cooling Design Air Flow Method
  ,                                       !- Cooling Design Air Flow Rate {m3/s}
  ,                                       !- Cooling Minimum Air Flow per Zone Floor Area {m3/s-m2}
  ,                                       !- Cooling Minimum Air Flow {m3/s}
  ,                                       !- Cooling Minimum Air Flow Fraction
  DesignDay,                              !- Heating Design Air Flow Method
  ,                                       !- Heating Design Air Flow Rate {m3/s}
  ,                                       !- Heating Maximum Air Flow per Zone Floor Area {m3/s-m2}
  ,                                       !- Heating Maximum Air Flow {m3/s}
  ,                                       !- Heating Maximum Air Flow Fraction
  ,                                       !- Design Zone Air Distribution Effectiveness in Cooling Mode
  ,                                       !- Design Zone Air Distribution Effectiveness in Heating Mode
  No,                                     !- Account for Dedicated Outdoor Air System
  NeutralSupplyAir,                       !- Dedicated Outdoor Air System Control Strategy
  autosize,                               !- Dedicated Outdoor Air Low Setpoint Temperature for Design {C}
  autosize;                               !- Dedicated Outdoor Air High Setpoint Temperature for Design {C}

OS:ZoneHVAC:EquipmentList,
  {dd12634e-152c-4155-af96-53ac1eed2a33}, !- Handle
  Zone HVAC Equipment List 1,             !- Name
  {8449039b-4e9b-4c66-a4a9-dbe474238e66}; !- Thermal Zone

OS:ThermalZone,
  {cafba010-9f40-4500-8b5e-e785e0ab897d}, !- Handle
  garage zone,                            !- Name
  ,                                       !- Multiplier
  ,                                       !- Ceiling Height {m}
  ,                                       !- Volume {m3}
  ,                                       !- Floor Area {m2}
  ,                                       !- Zone Inside Convection Algorithm
  ,                                       !- Zone Outside Convection Algorithm
  ,                                       !- Zone Conditioning Equipment List Name
  {adaccf43-631e-4308-8252-5fd29ce835ca}, !- Zone Air Inlet Port List
  {05052d1d-d8ff-4438-931f-36a4a5163ec0}, !- Zone Air Exhaust Port List
  {e30610ab-f864-4027-9d46-89da666531bf}, !- Zone Air Node Name
  {9412cf94-7bba-4f52-bc8f-2f146d07fa08}, !- Zone Return Air Port List
  ,                                       !- Primary Daylighting Control Name
  ,                                       !- Fraction of Zone Controlled by Primary Daylighting Control
  ,                                       !- Secondary Daylighting Control Name
  ,                                       !- Fraction of Zone Controlled by Secondary Daylighting Control
  ,                                       !- Illuminance Map Name
  ,                                       !- Group Rendering Name
  ,                                       !- Thermostat Name
  No;                                     !- Use Ideal Air Loads

OS:Node,
  {975a090a-ebba-435f-971d-c7aa1a334d2a}, !- Handle
  Node 2,                                 !- Name
  {e30610ab-f864-4027-9d46-89da666531bf}, !- Inlet Port
  ;                                       !- Outlet Port

OS:Connection,
  {e30610ab-f864-4027-9d46-89da666531bf}, !- Handle
  {e9d64ee3-fbd0-4299-9a05-1222db5f598a}, !- Name
  {cafba010-9f40-4500-8b5e-e785e0ab897d}, !- Source Object
  11,                                     !- Outlet Port
  {975a090a-ebba-435f-971d-c7aa1a334d2a}, !- Target Object
  2;                                      !- Inlet Port

OS:PortList,
  {adaccf43-631e-4308-8252-5fd29ce835ca}, !- Handle
  {9702eab2-da04-4571-a52c-a3bbe8e79e5c}, !- Name
  {cafba010-9f40-4500-8b5e-e785e0ab897d}; !- HVAC Component

OS:PortList,
  {05052d1d-d8ff-4438-931f-36a4a5163ec0}, !- Handle
  {61c0f23f-46c6-4c1e-bf03-d6fbac1f3e97}, !- Name
  {cafba010-9f40-4500-8b5e-e785e0ab897d}; !- HVAC Component

OS:PortList,
  {9412cf94-7bba-4f52-bc8f-2f146d07fa08}, !- Handle
  {90785673-8410-4d7b-8c70-b9321648d4bc}, !- Name
  {cafba010-9f40-4500-8b5e-e785e0ab897d}; !- HVAC Component

OS:Sizing:Zone,
  {66edd3fb-7e78-417a-8172-247817e3055e}, !- Handle
  {cafba010-9f40-4500-8b5e-e785e0ab897d}, !- Zone or ZoneList Name
  SupplyAirTemperature,                   !- Zone Cooling Design Supply Air Temperature Input Method
  14,                                     !- Zone Cooling Design Supply Air Temperature {C}
  11.11,                                  !- Zone Cooling Design Supply Air Temperature Difference {deltaC}
  SupplyAirTemperature,                   !- Zone Heating Design Supply Air Temperature Input Method
  40,                                     !- Zone Heating Design Supply Air Temperature {C}
  11.11,                                  !- Zone Heating Design Supply Air Temperature Difference {deltaC}
  0.0085,                                 !- Zone Cooling Design Supply Air Humidity Ratio {kg-H2O/kg-air}
  0.008,                                  !- Zone Heating Design Supply Air Humidity Ratio {kg-H2O/kg-air}
  ,                                       !- Zone Heating Sizing Factor
  ,                                       !- Zone Cooling Sizing Factor
  DesignDay,                              !- Cooling Design Air Flow Method
  ,                                       !- Cooling Design Air Flow Rate {m3/s}
  ,                                       !- Cooling Minimum Air Flow per Zone Floor Area {m3/s-m2}
  ,                                       !- Cooling Minimum Air Flow {m3/s}
  ,                                       !- Cooling Minimum Air Flow Fraction
  DesignDay,                              !- Heating Design Air Flow Method
  ,                                       !- Heating Design Air Flow Rate {m3/s}
  ,                                       !- Heating Maximum Air Flow per Zone Floor Area {m3/s-m2}
  ,                                       !- Heating Maximum Air Flow {m3/s}
  ,                                       !- Heating Maximum Air Flow Fraction
  ,                                       !- Design Zone Air Distribution Effectiveness in Cooling Mode
  ,                                       !- Design Zone Air Distribution Effectiveness in Heating Mode
  No,                                     !- Account for Dedicated Outdoor Air System
  NeutralSupplyAir,                       !- Dedicated Outdoor Air System Control Strategy
  autosize,                               !- Dedicated Outdoor Air Low Setpoint Temperature for Design {C}
  autosize;                               !- Dedicated Outdoor Air High Setpoint Temperature for Design {C}

OS:ZoneHVAC:EquipmentList,
  {bf066717-5cfb-44bf-a7ea-bd205c34e963}, !- Handle
  Zone HVAC Equipment List 2,             !- Name
  {cafba010-9f40-4500-8b5e-e785e0ab897d}; !- Thermal Zone

OS:Space,
  {ccd966fd-5b40-43dc-bed8-2fb60bc5a4c6}, !- Handle
  garage space,                           !- Name
  {f28c00d7-3695-473f-b10f-b1fcb268a8af}, !- Space Type Name
  ,                                       !- Default Construction Set Name
  ,                                       !- Default Schedule Set Name
  -0,                                     !- Direction of Relative North {deg}
  0,                                      !- X Origin {m}
  0,                                      !- Y Origin {m}
  0,                                      !- Z Origin {m}
  ,                                       !- Building Story Name
  {cafba010-9f40-4500-8b5e-e785e0ab897d}; !- Thermal Zone Name

OS:Surface,
  {646305b2-8da5-47a0-9a37-0d1a2d697d5f}, !- Handle
  Surface 1,                              !- Name
  Floor,                                  !- Surface Type
  ,                                       !- Construction Name
  {ccd966fd-5b40-43dc-bed8-2fb60bc5a4c6}, !- Space Name
  Foundation,                             !- Outside Boundary Condition
  ,                                       !- Outside Boundary Condition Object
  NoSun,                                  !- Sun Exposure
  NoWind,                                 !- Wind Exposure
  ,                                       !- View Factor to Ground
  ,                                       !- Number of Vertices
  5.57695129776527, -3.048, 0,            !- X,Y,Z Vertex 1 {m}
  5.57695129776527, 3.048, 0,             !- X,Y,Z Vertex 2 {m}
  11.6729512977653, 3.048, 0,             !- X,Y,Z Vertex 3 {m}
  11.6729512977653, -3.048, 0;            !- X,Y,Z Vertex 4 {m}

OS:Surface,
  {215ce644-4d3c-4028-ac22-680a887d1805}, !- Handle
  Surface 2,                              !- Name
  Wall,                                   !- Surface Type
  ,                                       !- Construction Name
  {ccd966fd-5b40-43dc-bed8-2fb60bc5a4c6}, !- Space Name
  Surface,                                !- Outside Boundary Condition
  {e76b7671-318d-471f-a089-6d798bceb689}, !- Outside Boundary Condition Object
  NoSun,                                  !- Sun Exposure
  NoWind,                                 !- Wind Exposure
  ,                                       !- View Factor to Ground
  ,                                       !- Number of Vertices
  5.57695129776527, 3.048, 2.4384,        !- X,Y,Z Vertex 1 {m}
  5.57695129776527, 3.048, 0,             !- X,Y,Z Vertex 2 {m}
  5.57695129776527, 0, 0,                 !- X,Y,Z Vertex 3 {m}
  5.57695129776527, 0, 2.4384;            !- X,Y,Z Vertex 4 {m}

OS:Surface,
  {859b29e8-5ed1-4616-b182-196914e96d7a}, !- Handle
  Surface 3,                              !- Name
  Wall,                                   !- Surface Type
  ,                                       !- Construction Name
  {ccd966fd-5b40-43dc-bed8-2fb60bc5a4c6}, !- Space Name
  Surface,                                !- Outside Boundary Condition
  {6df634d6-607c-4702-a18a-026729c3cec2}, !- Outside Boundary Condition Object
  NoSun,                                  !- Sun Exposure
  NoWind,                                 !- Wind Exposure
  ,                                       !- View Factor to Ground
  ,                                       !- Number of Vertices
  11.6729512977653, 3.048, 2.4384,        !- X,Y,Z Vertex 1 {m}
  11.6729512977653, 3.048, 0,             !- X,Y,Z Vertex 2 {m}
  5.57695129776527, 3.048, 0,             !- X,Y,Z Vertex 3 {m}
  5.57695129776527, 3.048, 2.4384;        !- X,Y,Z Vertex 4 {m}

OS:Surface,
  {2f89c923-794d-4548-858b-7349094e85c0}, !- Handle
  Surface 4,                              !- Name
  Wall,                                   !- Surface Type
  ,                                       !- Construction Name
  {ccd966fd-5b40-43dc-bed8-2fb60bc5a4c6}, !- Space Name
  Outdoors,                               !- Outside Boundary Condition
  ,                                       !- Outside Boundary Condition Object
  SunExposed,                             !- Sun Exposure
  WindExposed,                            !- Wind Exposure
  ,                                       !- View Factor to Ground
  ,                                       !- Number of Vertices
  11.6729512977653, -3.048, 2.4384,       !- X,Y,Z Vertex 1 {m}
  11.6729512977653, -3.048, 0,            !- X,Y,Z Vertex 2 {m}
  11.6729512977653, 3.048, 0,             !- X,Y,Z Vertex 3 {m}
  11.6729512977653, 3.048, 2.4384;        !- X,Y,Z Vertex 4 {m}

OS:Surface,
  {5f97bfa0-7282-4496-8881-ccf4ca15c734}, !- Handle
  Surface 5,                              !- Name
  Wall,                                   !- Surface Type
  ,                                       !- Construction Name
  {ccd966fd-5b40-43dc-bed8-2fb60bc5a4c6}, !- Space Name
  Outdoors,                               !- Outside Boundary Condition
  ,                                       !- Outside Boundary Condition Object
  SunExposed,                             !- Sun Exposure
  WindExposed,                            !- Wind Exposure
  ,                                       !- View Factor to Ground
  ,                                       !- Number of Vertices
  5.57695129776527, -3.048, 2.4384,       !- X,Y,Z Vertex 1 {m}
  5.57695129776527, -3.048, 0,            !- X,Y,Z Vertex 2 {m}
  11.6729512977653, -3.048, 0,            !- X,Y,Z Vertex 3 {m}
  11.6729512977653, -3.048, 2.4384;       !- X,Y,Z Vertex 4 {m}

OS:Surface,
  {a3460248-7509-4722-af93-eda7b161699b}, !- Handle
  Surface 6,                              !- Name
  RoofCeiling,                            !- Surface Type
  ,                                       !- Construction Name
  {ccd966fd-5b40-43dc-bed8-2fb60bc5a4c6}, !- Space Name
  Surface,                                !- Outside Boundary Condition
  {7e54726b-6310-4a6c-9fcc-9c126c75a856}, !- Outside Boundary Condition Object
  NoSun,                                  !- Sun Exposure
  NoWind,                                 !- Wind Exposure
  ,                                       !- View Factor to Ground
  ,                                       !- Number of Vertices
  11.6729512977653, -3.048, 2.4384,       !- X,Y,Z Vertex 1 {m}
  11.6729512977653, 3.048, 2.4384,        !- X,Y,Z Vertex 2 {m}
  5.57695129776527, 3.048, 2.4384,        !- X,Y,Z Vertex 3 {m}
  5.57695129776527, -3.048, 2.4384;       !- X,Y,Z Vertex 4 {m}

OS:SpaceType,
  {f28c00d7-3695-473f-b10f-b1fcb268a8af}, !- Handle
  Space Type 1,                           !- Name
  ,                                       !- Default Construction Set Name
  ,                                       !- Default Schedule Set Name
  ,                                       !- Group Rendering Name
  ,                                       !- Design Specification Outdoor Air Object Name
  ,                                       !- Standards Template
  ,                                       !- Standards Building Type
  garage;                                 !- Standards Space Type

OS:Space,
  {288b4c05-ce83-4872-918e-861165bc0234}, !- Handle
  living space,                           !- Name
  {14a421f0-dca2-4855-98df-9d9ff5c8d338}, !- Space Type Name
  ,                                       !- Default Construction Set Name
  ,                                       !- Default Schedule Set Name
  -0,                                     !- Direction of Relative North {deg}
  0,                                      !- X Origin {m}
  0,                                      !- Y Origin {m}
  0,                                      !- Z Origin {m}
  ,                                       !- Building Story Name
  {8449039b-4e9b-4c66-a4a9-dbe474238e66}, !- Thermal Zone Name
  ,                                       !- Part of Total Floor Area
  ,                                       !- Design Specification Outdoor Air Object Name
  {d32cb44a-6916-4d56-b0bd-a343dcace994}; !- Building Unit Name

OS:Surface,
  {cc9456b4-054c-4397-b1d0-9a54196b94ca}, !- Handle
  Surface 7,                              !- Name
  Floor,                                  !- Surface Type
  ,                                       !- Construction Name
  {288b4c05-ce83-4872-918e-861165bc0234}, !- Space Name
  Surface,                                !- Outside Boundary Condition
  {665ebc7e-9102-4b78-aa47-1c7be40f5ed2}, !- Outside Boundary Condition Object
  NoSun,                                  !- Sun Exposure
  NoWind,                                 !- Wind Exposure
  ,                                       !- View Factor to Ground
  ,                                       !- Number of Vertices
  0, 0, 0,                                !- X,Y,Z Vertex 1 {m}
  0, 5.83647564888264, 0,                 !- X,Y,Z Vertex 2 {m}
  11.6729512977653, 5.83647564888264, 0,  !- X,Y,Z Vertex 3 {m}
  11.6729512977653, 3.048, 0,             !- X,Y,Z Vertex 4 {m}
  5.57695129776527, 3.048, 0,             !- X,Y,Z Vertex 5 {m}
  5.57695129776527, 0, 0;                 !- X,Y,Z Vertex 6 {m}

OS:Surface,
  {c4262ada-bd1b-450e-a65f-4833a1bf4c6d}, !- Handle
  Surface 8,                              !- Name
  Wall,                                   !- Surface Type
  ,                                       !- Construction Name
  {288b4c05-ce83-4872-918e-861165bc0234}, !- Space Name
  Outdoors,                               !- Outside Boundary Condition
  ,                                       !- Outside Boundary Condition Object
  SunExposed,                             !- Sun Exposure
  WindExposed,                            !- Wind Exposure
  ,                                       !- View Factor to Ground
  ,                                       !- Number of Vertices
  0, 5.83647564888264, 2.4384,            !- X,Y,Z Vertex 1 {m}
  0, 5.83647564888264, 0,                 !- X,Y,Z Vertex 2 {m}
  0, 0, 0,                                !- X,Y,Z Vertex 3 {m}
  0, 0, 2.4384;                           !- X,Y,Z Vertex 4 {m}

OS:Surface,
  {e28dae69-06af-4ce6-a0ba-ba6d32853908}, !- Handle
  Surface 9,                              !- Name
  Wall,                                   !- Surface Type
  ,                                       !- Construction Name
  {288b4c05-ce83-4872-918e-861165bc0234}, !- Space Name
  Outdoors,                               !- Outside Boundary Condition
  ,                                       !- Outside Boundary Condition Object
  SunExposed,                             !- Sun Exposure
  WindExposed,                            !- Wind Exposure
  ,                                       !- View Factor to Ground
  ,                                       !- Number of Vertices
  11.6729512977653, 5.83647564888264, 2.4384, !- X,Y,Z Vertex 1 {m}
  11.6729512977653, 5.83647564888264, 0,  !- X,Y,Z Vertex 2 {m}
  0, 5.83647564888264, 0,                 !- X,Y,Z Vertex 3 {m}
  0, 5.83647564888264, 2.4384;            !- X,Y,Z Vertex 4 {m}

OS:Surface,
  {4322fb73-fdc5-46b4-a149-a4a68ede397a}, !- Handle
  Surface 10,                             !- Name
  Wall,                                   !- Surface Type
  ,                                       !- Construction Name
  {288b4c05-ce83-4872-918e-861165bc0234}, !- Space Name
  Outdoors,                               !- Outside Boundary Condition
  ,                                       !- Outside Boundary Condition Object
  SunExposed,                             !- Sun Exposure
  WindExposed,                            !- Wind Exposure
  ,                                       !- View Factor to Ground
  ,                                       !- Number of Vertices
  11.6729512977653, 3.048, 2.4384,        !- X,Y,Z Vertex 1 {m}
  11.6729512977653, 3.048, 0,             !- X,Y,Z Vertex 2 {m}
  11.6729512977653, 5.83647564888264, 0,  !- X,Y,Z Vertex 3 {m}
  11.6729512977653, 5.83647564888264, 2.4384; !- X,Y,Z Vertex 4 {m}

OS:Surface,
  {6df634d6-607c-4702-a18a-026729c3cec2}, !- Handle
  Surface 11,                             !- Name
  Wall,                                   !- Surface Type
  ,                                       !- Construction Name
  {288b4c05-ce83-4872-918e-861165bc0234}, !- Space Name
  Surface,                                !- Outside Boundary Condition
  {859b29e8-5ed1-4616-b182-196914e96d7a}, !- Outside Boundary Condition Object
  NoSun,                                  !- Sun Exposure
  NoWind,                                 !- Wind Exposure
  ,                                       !- View Factor to Ground
  ,                                       !- Number of Vertices
  5.57695129776527, 3.048, 2.4384,        !- X,Y,Z Vertex 1 {m}
  5.57695129776527, 3.048, 0,             !- X,Y,Z Vertex 2 {m}
  11.6729512977653, 3.048, 0,             !- X,Y,Z Vertex 3 {m}
  11.6729512977653, 3.048, 2.4384;        !- X,Y,Z Vertex 4 {m}

OS:Surface,
  {e76b7671-318d-471f-a089-6d798bceb689}, !- Handle
  Surface 12,                             !- Name
  Wall,                                   !- Surface Type
  ,                                       !- Construction Name
  {288b4c05-ce83-4872-918e-861165bc0234}, !- Space Name
  Surface,                                !- Outside Boundary Condition
  {215ce644-4d3c-4028-ac22-680a887d1805}, !- Outside Boundary Condition Object
  NoSun,                                  !- Sun Exposure
  NoWind,                                 !- Wind Exposure
  ,                                       !- View Factor to Ground
  ,                                       !- Number of Vertices
  5.57695129776527, 0, 2.4384,            !- X,Y,Z Vertex 1 {m}
  5.57695129776527, 0, 0,                 !- X,Y,Z Vertex 2 {m}
  5.57695129776527, 3.048, 0,             !- X,Y,Z Vertex 3 {m}
  5.57695129776527, 3.048, 2.4384;        !- X,Y,Z Vertex 4 {m}

OS:Surface,
  {147311e9-0cf6-4fe5-85e9-ea6874eca941}, !- Handle
  Surface 13,                             !- Name
  Wall,                                   !- Surface Type
  ,                                       !- Construction Name
  {288b4c05-ce83-4872-918e-861165bc0234}, !- Space Name
  Outdoors,                               !- Outside Boundary Condition
  ,                                       !- Outside Boundary Condition Object
  SunExposed,                             !- Sun Exposure
  WindExposed,                            !- Wind Exposure
  ,                                       !- View Factor to Ground
  ,                                       !- Number of Vertices
  0, 0, 2.4384,                           !- X,Y,Z Vertex 1 {m}
  0, 0, 0,                                !- X,Y,Z Vertex 2 {m}
  5.57695129776527, 0, 0,                 !- X,Y,Z Vertex 3 {m}
  5.57695129776527, 0, 2.4384;            !- X,Y,Z Vertex 4 {m}

OS:Surface,
  {5f3b6b2a-dbbc-452d-aee5-4b12db000086}, !- Handle
  Surface 14,                             !- Name
  RoofCeiling,                            !- Surface Type
  ,                                       !- Construction Name
  {288b4c05-ce83-4872-918e-861165bc0234}, !- Space Name
  Surface,                                !- Outside Boundary Condition
  {ec0da37f-c9ff-461b-abfa-ad08984d5c24}, !- Outside Boundary Condition Object
  NoSun,                                  !- Sun Exposure
  NoWind,                                 !- Wind Exposure
  ,                                       !- View Factor to Ground
  ,                                       !- Number of Vertices
  5.57695129776527, 0, 2.4384,            !- X,Y,Z Vertex 1 {m}
  5.57695129776527, 3.048, 2.4384,        !- X,Y,Z Vertex 2 {m}
  11.6729512977653, 3.048, 2.4384,        !- X,Y,Z Vertex 3 {m}
  11.6729512977653, 5.83647564888264, 2.4384, !- X,Y,Z Vertex 4 {m}
  0, 5.83647564888264, 2.4384,            !- X,Y,Z Vertex 5 {m}
  0, 0, 2.4384;                           !- X,Y,Z Vertex 6 {m}

OS:SpaceType,
  {14a421f0-dca2-4855-98df-9d9ff5c8d338}, !- Handle
  Space Type 2,                           !- Name
  ,                                       !- Default Construction Set Name
  ,                                       !- Default Schedule Set Name
  ,                                       !- Group Rendering Name
  ,                                       !- Design Specification Outdoor Air Object Name
  ,                                       !- Standards Template
  ,                                       !- Standards Building Type
  living;                                 !- Standards Space Type

OS:Space,
  {b46ccaa6-932c-4e05-ab04-4ee791453a8d}, !- Handle
  living space|story 2,                   !- Name
  {14a421f0-dca2-4855-98df-9d9ff5c8d338}, !- Space Type Name
  ,                                       !- Default Construction Set Name