!- NOTE: Auto-generated from /test/osw_files/SFD_2000sqft_2story_FB_UA_Denver_Furnace_CentralAC2.osw

OS:Version,
  {f7ca3ac9-6250-48c7-97eb-1f1c3082e2df}, !- Handle
  2.9.0;                                  !- Version Identifier

OS:SimulationControl,
  {ea314cd1-4aeb-4efd-95c3-fcea7501747d}, !- Handle
  ,                                       !- Do Zone Sizing Calculation
  ,                                       !- Do System Sizing Calculation
  ,                                       !- Do Plant Sizing Calculation
  No;                                     !- Run Simulation for Sizing Periods

OS:Timestep,
  {9ffbd7db-1e89-4671-b8be-85b56be21bbb}, !- Handle
  6;                                      !- Number of Timesteps per Hour

OS:ShadowCalculation,
  {19ddb3dc-c1b2-44dd-8c9e-36fa997e6989}, !- Handle
  20,                                     !- Calculation Frequency
  200;                                    !- Maximum Figures in Shadow Overlap Calculations

OS:SurfaceConvectionAlgorithm:Outside,
  {78cb1c75-35bc-45a7-b012-8abbb0f26df0}, !- Handle
  DOE-2;                                  !- Algorithm

OS:SurfaceConvectionAlgorithm:Inside,
  {7e1e9012-9e37-4ebc-a4f6-43cf8870ff01}, !- Handle
  TARP;                                   !- Algorithm

OS:ZoneCapacitanceMultiplier:ResearchSpecial,
  {29047a93-69a5-464b-848d-1d4dc6e1a385}, !- Handle
  ,                                       !- Temperature Capacity Multiplier
  15,                                     !- Humidity Capacity Multiplier
  ;                                       !- Carbon Dioxide Capacity Multiplier

OS:RunPeriod,
  {099eba10-4292-4d11-8b3e-c70bd86b1df9}, !- Handle
  Run Period 1,                           !- Name
  1,                                      !- Begin Month
  1,                                      !- Begin Day of Month
  12,                                     !- End Month
  31,                                     !- End Day of Month
  ,                                       !- Use Weather File Holidays and Special Days
  ,                                       !- Use Weather File Daylight Saving Period
  ,                                       !- Apply Weekend Holiday Rule
  ,                                       !- Use Weather File Rain Indicators
  ,                                       !- Use Weather File Snow Indicators
  ;                                       !- Number of Times Runperiod to be Repeated

OS:YearDescription,
  {f1807738-dcc6-4ebc-aa0d-1cac4e95a0f5}, !- Handle
  2007,                                   !- Calendar Year
  ,                                       !- Day of Week for Start Day
  ;                                       !- Is Leap Year

OS:ThermalZone,
  {fb2b7620-6f25-4cfe-a2fd-244cb7a073b9}, !- Handle
  living zone,                            !- Name
  ,                                       !- Multiplier
  ,                                       !- Ceiling Height {m}
  ,                                       !- Volume {m3}
  ,                                       !- Floor Area {m2}
  ,                                       !- Zone Inside Convection Algorithm
  ,                                       !- Zone Outside Convection Algorithm
  ,                                       !- Zone Conditioning Equipment List Name
  {0b9a3db2-98ba-4172-90f1-32469941f53c}, !- Zone Air Inlet Port List
  {9906b20b-2272-4542-a13c-f916cead9236}, !- Zone Air Exhaust Port List
  {66ca3bdd-4335-4637-a376-d0525c45d7ac}, !- Zone Air Node Name
  {09b8c6db-186e-4b3c-8bc5-fce151606ed5}, !- Zone Return Air Port List
  ,                                       !- Primary Daylighting Control Name
  ,                                       !- Fraction of Zone Controlled by Primary Daylighting Control
  ,                                       !- Secondary Daylighting Control Name
  ,                                       !- Fraction of Zone Controlled by Secondary Daylighting Control
  ,                                       !- Illuminance Map Name
  ,                                       !- Group Rendering Name
  {9e9b4a9d-301e-4494-b796-c8d2c95f3ede}, !- Thermostat Name
  No;                                     !- Use Ideal Air Loads

OS:Node,
  {f62b9874-6827-4d45-8eec-32be3584c783}, !- Handle
  Node 1,                                 !- Name
  {66ca3bdd-4335-4637-a376-d0525c45d7ac}, !- Inlet Port
  ;                                       !- Outlet Port

OS:Connection,
  {66ca3bdd-4335-4637-a376-d0525c45d7ac}, !- Handle
  {7d4926e4-30de-4f0e-adba-7cde7ccad3df}, !- Name
  {fb2b7620-6f25-4cfe-a2fd-244cb7a073b9}, !- Source Object
  11,                                     !- Outlet Port
  {f62b9874-6827-4d45-8eec-32be3584c783}, !- Target Object
  2;                                      !- Inlet Port

OS:PortList,
  {0b9a3db2-98ba-4172-90f1-32469941f53c}, !- Handle
  {b6c36da6-175f-4b2c-a168-05ea1e4eb3c6}, !- Name
  {fb2b7620-6f25-4cfe-a2fd-244cb7a073b9}, !- HVAC Component
  {3c4005da-f92f-4f7d-a654-87e161839d20}, !- Port 1
  {d50b9311-5ef5-43c4-8c89-3bdfb844e46b}; !- Port 2

OS:PortList,
  {9906b20b-2272-4542-a13c-f916cead9236}, !- Handle
  {3c5f822e-9233-4735-9ca9-9f1c9ea1403a}, !- Name
  {fb2b7620-6f25-4cfe-a2fd-244cb7a073b9}; !- HVAC Component

OS:PortList,
  {09b8c6db-186e-4b3c-8bc5-fce151606ed5}, !- Handle
  {75d71582-b778-4228-b8a1-84c4d07105cc}, !- Name
  {fb2b7620-6f25-4cfe-a2fd-244cb7a073b9}, !- HVAC Component
  {431b88f3-6392-452b-be6f-1c4a154acc3a}, !- Port 1
  {6712646f-6c5a-47f1-88a3-bf7bdcc4e559}; !- Port 2

OS:Sizing:Zone,
  {e4d88b56-6d22-4eb3-a010-a1541c2f2f1d}, !- Handle
  {fb2b7620-6f25-4cfe-a2fd-244cb7a073b9}, !- Zone or ZoneList Name
  SupplyAirTemperature,                   !- Zone Cooling Design Supply Air Temperature Input Method
  14,                                     !- Zone Cooling Design Supply Air Temperature {C}
  11.11,                                  !- Zone Cooling Design Supply Air Temperature Difference {deltaC}
  SupplyAirTemperature,                   !- Zone Heating Design Supply Air Temperature Input Method
  40,                                     !- Zone Heating Design Supply Air Temperature {C}
  11.11,                                  !- Zone Heating Design Supply Air Temperature Difference {deltaC}
  0.0085,                                 !- Zone Cooling Design Supply Air Humidity Ratio {kg-H2O/kg-air}
  0.008,                                  !- Zone Heating Design Supply Air Humidity Ratio {kg-H2O/kg-air}
  ,                                       !- Zone Heating Sizing Factor
  ,                                       !- Zone Cooling Sizing Factor
  DesignDay,                              !- Cooling Design Air Flow Method
  ,                                       !- Cooling Design Air Flow Rate {m3/s}
  ,                                       !- Cooling Minimum Air Flow per Zone Floor Area {m3/s-m2}
  ,                                       !- Cooling Minimum Air Flow {m3/s}
  ,                                       !- Cooling Minimum Air Flow Fraction
  DesignDay,                              !- Heating Design Air Flow Method
  ,                                       !- Heating Design Air Flow Rate {m3/s}
  ,                                       !- Heating Maximum Air Flow per Zone Floor Area {m3/s-m2}
  ,                                       !- Heating Maximum Air Flow {m3/s}
  ,                                       !- Heating Maximum Air Flow Fraction
  ,                                       !- Design Zone Air Distribution Effectiveness in Cooling Mode
  ,                                       !- Design Zone Air Distribution Effectiveness in Heating Mode
  No,                                     !- Account for Dedicated Outdoor Air System
  NeutralSupplyAir,                       !- Dedicated Outdoor Air System Control Strategy
  autosize,                               !- Dedicated Outdoor Air Low Setpoint Temperature for Design {C}
  autosize;                               !- Dedicated Outdoor Air High Setpoint Temperature for Design {C}

OS:ZoneHVAC:EquipmentList,
  {8b548874-8623-4b5b-801f-e87eed655b87}, !- Handle
  Zone HVAC Equipment List 1,             !- Name
  {fb2b7620-6f25-4cfe-a2fd-244cb7a073b9}, !- Thermal Zone
  SequentialLoad,                         !- Load Distribution Scheme
  {01d9f4a3-dc31-44e3-8b57-8ab823bb6fef}, !- Zone Equipment 1
  1,                                      !- Zone Equipment Cooling Sequence 1
  1,                                      !- Zone Equipment Heating or No-Load Sequence 1
  ,                                       !- Zone Equipment Sequential Cooling Fraction Schedule Name 1
  ,                                       !- Zone Equipment Sequential Heating Fraction Schedule Name 1
  {076922bd-aa89-480a-8e4e-c1f10d9fdb9e}, !- Zone Equipment 2
  2,                                      !- Zone Equipment Cooling Sequence 2
  2,                                      !- Zone Equipment Heating or No-Load Sequence 2
  ,                                       !- Zone Equipment Sequential Cooling Fraction Schedule Name 2
  ;                                       !- Zone Equipment Sequential Heating Fraction Schedule Name 2

OS:ThermalZone,
  {e334b837-0664-453e-a6d1-a74b1c89177e}, !- Handle
  garage zone,                            !- Name
  ,                                       !- Multiplier
  ,                                       !- Ceiling Height {m}
  ,                                       !- Volume {m3}
  ,                                       !- Floor Area {m2}
  ,                                       !- Zone Inside Convection Algorithm
  ,                                       !- Zone Outside Convection Algorithm
  ,                                       !- Zone Conditioning Equipment List Name
  {15a0c560-5704-4f0a-9d6d-3f63a12ffd1d}, !- Zone Air Inlet Port List
  {f91d802e-7136-4fc4-908d-62a0bb261a93}, !- Zone Air Exhaust Port List
  {071d70b0-2137-4907-bdca-df4c085d5d8f}, !- Zone Air Node Name
  {fd881b13-1649-4a1d-9db1-931a516da7b2}, !- Zone Return Air Port List
  ,                                       !- Primary Daylighting Control Name
  ,                                       !- Fraction of Zone Controlled by Primary Daylighting Control
  ,                                       !- Secondary Daylighting Control Name
  ,                                       !- Fraction of Zone Controlled by Secondary Daylighting Control
  ,                                       !- Illuminance Map Name
  ,                                       !- Group Rendering Name
  ,                                       !- Thermostat Name
  No;                                     !- Use Ideal Air Loads

OS:Node,
  {ea174d01-369a-4755-9dcf-7ad30e3293fc}, !- Handle
  Node 2,                                 !- Name
  {071d70b0-2137-4907-bdca-df4c085d5d8f}, !- Inlet Port
  ;                                       !- Outlet Port

OS:Connection,
  {071d70b0-2137-4907-bdca-df4c085d5d8f}, !- Handle
  {9e872289-420e-496d-8773-48549b27822c}, !- Name
  {e334b837-0664-453e-a6d1-a74b1c89177e}, !- Source Object
  11,                                     !- Outlet Port
  {ea174d01-369a-4755-9dcf-7ad30e3293fc}, !- Target Object
  2;                                      !- Inlet Port

OS:PortList,
  {15a0c560-5704-4f0a-9d6d-3f63a12ffd1d}, !- Handle
  {cece0389-dbcd-4053-ac6d-2ffb5ffa58e8}, !- Name
  {e334b837-0664-453e-a6d1-a74b1c89177e}; !- HVAC Component

OS:PortList,
  {f91d802e-7136-4fc4-908d-62a0bb261a93}, !- Handle
  {719a0513-8f79-4b26-b5b4-1418548d0026}, !- Name
  {e334b837-0664-453e-a6d1-a74b1c89177e}; !- HVAC Component

OS:PortList,
  {fd881b13-1649-4a1d-9db1-931a516da7b2}, !- Handle
  {df611f95-ac3e-410a-afdf-72dee4464a30}, !- Name
  {e334b837-0664-453e-a6d1-a74b1c89177e}; !- HVAC Component

OS:Sizing:Zone,
  {0b9602fe-e10b-4bca-b176-4c09760bffeb}, !- Handle
  {e334b837-0664-453e-a6d1-a74b1c89177e}, !- Zone or ZoneList Name
  SupplyAirTemperature,                   !- Zone Cooling Design Supply Air Temperature Input Method
  14,                                     !- Zone Cooling Design Supply Air Temperature {C}
  11.11,                                  !- Zone Cooling Design Supply Air Temperature Difference {deltaC}
  SupplyAirTemperature,                   !- Zone Heating Design Supply Air Temperature Input Method
  40,                                     !- Zone Heating Design Supply Air Temperature {C}
  11.11,                                  !- Zone Heating Design Supply Air Temperature Difference {deltaC}
  0.0085,                                 !- Zone Cooling Design Supply Air Humidity Ratio {kg-H2O/kg-air}
  0.008,                                  !- Zone Heating Design Supply Air Humidity Ratio {kg-H2O/kg-air}
  ,                                       !- Zone Heating Sizing Factor
  ,                                       !- Zone Cooling Sizing Factor
  DesignDay,                              !- Cooling Design Air Flow Method
  ,                                       !- Cooling Design Air Flow Rate {m3/s}
  ,                                       !- Cooling Minimum Air Flow per Zone Floor Area {m3/s-m2}
  ,                                       !- Cooling Minimum Air Flow {m3/s}
  ,                                       !- Cooling Minimum Air Flow Fraction
  DesignDay,                              !- Heating Design Air Flow Method
  ,                                       !- Heating Design Air Flow Rate {m3/s}
  ,                                       !- Heating Maximum Air Flow per Zone Floor Area {m3/s-m2}
  ,                                       !- Heating Maximum Air Flow {m3/s}
  ,                                       !- Heating Maximum Air Flow Fraction
  ,                                       !- Design Zone Air Distribution Effectiveness in Cooling Mode
  ,                                       !- Design Zone Air Distribution Effectiveness in Heating Mode
  No,                                     !- Account for Dedicated Outdoor Air System
  NeutralSupplyAir,                       !- Dedicated Outdoor Air System Control Strategy
  autosize,                               !- Dedicated Outdoor Air Low Setpoint Temperature for Design {C}
  autosize;                               !- Dedicated Outdoor Air High Setpoint Temperature for Design {C}

OS:ZoneHVAC:EquipmentList,
  {31d6c2e8-c9da-4e70-bc83-15c63eacd8c4}, !- Handle
  Zone HVAC Equipment List 2,             !- Name
  {e334b837-0664-453e-a6d1-a74b1c89177e}; !- Thermal Zone

OS:Space,
  {9c47c83c-4628-44d2-a690-1d5d2311f7bb}, !- Handle
  garage space,                           !- Name
  {ad892145-79dc-4b7a-a9aa-24030280c9cc}, !- Space Type Name
  ,                                       !- Default Construction Set Name
  ,                                       !- Default Schedule Set Name
  -0,                                     !- Direction of Relative North {deg}
  0,                                      !- X Origin {m}
  0,                                      !- Y Origin {m}
  0,                                      !- Z Origin {m}
  ,                                       !- Building Story Name
  {e334b837-0664-453e-a6d1-a74b1c89177e}; !- Thermal Zone Name

OS:Surface,
  {863857ef-dec6-4bee-9e86-843dc9aec2f4}, !- Handle
  Surface 1,                              !- Name
  Floor,                                  !- Surface Type
  ,                                       !- Construction Name
  {9c47c83c-4628-44d2-a690-1d5d2311f7bb}, !- Space Name
  Foundation,                             !- Outside Boundary Condition
  ,                                       !- Outside Boundary Condition Object
  NoSun,                                  !- Sun Exposure
  NoWind,                                 !- Wind Exposure
  ,                                       !- View Factor to Ground
  ,                                       !- Number of Vertices
  5.57695129776527, -3.048, 0,            !- X,Y,Z Vertex 1 {m}
  5.57695129776527, 3.048, 0,             !- X,Y,Z Vertex 2 {m}
  11.6729512977653, 3.048, 0,             !- X,Y,Z Vertex 3 {m}
  11.6729512977653, -3.048, 0;            !- X,Y,Z Vertex 4 {m}

OS:Surface,
  {2d616efc-a456-4664-8c0b-6f8345688eed}, !- Handle
  Surface 2,                              !- Name
  Wall,                                   !- Surface Type
  ,                                       !- Construction Name
  {9c47c83c-4628-44d2-a690-1d5d2311f7bb}, !- Space Name
  Surface,                                !- Outside Boundary Condition
  {35805dfd-6f8e-4c44-af2e-4f7e539c17a4}, !- Outside Boundary Condition Object
  NoSun,                                  !- Sun Exposure
  NoWind,                                 !- Wind Exposure
  ,                                       !- View Factor to Ground
  ,                                       !- Number of Vertices
  5.57695129776527, 3.048, 2.4384,        !- X,Y,Z Vertex 1 {m}
  5.57695129776527, 3.048, 0,             !- X,Y,Z Vertex 2 {m}
  5.57695129776527, 0, 0,                 !- X,Y,Z Vertex 3 {m}
  5.57695129776527, 0, 2.4384;            !- X,Y,Z Vertex 4 {m}

OS:Surface,
  {ca8c5b06-66cf-4bcd-b8eb-eed12c2d65c9}, !- Handle
  Surface 3,                              !- Name
  Wall,                                   !- Surface Type
  ,                                       !- Construction Name
  {9c47c83c-4628-44d2-a690-1d5d2311f7bb}, !- Space Name
  Surface,                                !- Outside Boundary Condition
  {c386cfa5-eadb-4230-b7da-b7db0438058f}, !- Outside Boundary Condition Object
  NoSun,                                  !- Sun Exposure
  NoWind,                                 !- Wind Exposure
  ,                                       !- View Factor to Ground
  ,                                       !- Number of Vertices
  11.6729512977653, 3.048, 2.4384,        !- X,Y,Z Vertex 1 {m}
  11.6729512977653, 3.048, 0,             !- X,Y,Z Vertex 2 {m}
  5.57695129776527, 3.048, 0,             !- X,Y,Z Vertex 3 {m}
  5.57695129776527, 3.048, 2.4384;        !- X,Y,Z Vertex 4 {m}

OS:Surface,
  {b74610ba-c655-4f9b-b0e8-3d9b29f5685a}, !- Handle
  Surface 4,                              !- Name
  Wall,                                   !- Surface Type
  ,                                       !- Construction Name
  {9c47c83c-4628-44d2-a690-1d5d2311f7bb}, !- Space Name
  Outdoors,                               !- Outside Boundary Condition
  ,                                       !- Outside Boundary Condition Object
  SunExposed,                             !- Sun Exposure
  WindExposed,                            !- Wind Exposure
  ,                                       !- View Factor to Ground
  ,                                       !- Number of Vertices
  11.6729512977653, -3.048, 2.4384,       !- X,Y,Z Vertex 1 {m}
  11.6729512977653, -3.048, 0,            !- X,Y,Z Vertex 2 {m}
  11.6729512977653, 3.048, 0,             !- X,Y,Z Vertex 3 {m}
  11.6729512977653, 3.048, 2.4384;        !- X,Y,Z Vertex 4 {m}

OS:Surface,
  {3cf99726-91b8-4975-a5b6-e199fc142b9b}, !- Handle
  Surface 5,                              !- Name
  Wall,                                   !- Surface Type
  ,                                       !- Construction Name
  {9c47c83c-4628-44d2-a690-1d5d2311f7bb}, !- Space Name
  Outdoors,                               !- Outside Boundary Condition
  ,                                       !- Outside Boundary Condition Object
  SunExposed,                             !- Sun Exposure
  WindExposed,                            !- Wind Exposure
  ,                                       !- View Factor to Ground
  ,                                       !- Number of Vertices
  5.57695129776527, -3.048, 2.4384,       !- X,Y,Z Vertex 1 {m}
  5.57695129776527, -3.048, 0,            !- X,Y,Z Vertex 2 {m}
  11.6729512977653, -3.048, 0,            !- X,Y,Z Vertex 3 {m}
  11.6729512977653, -3.048, 2.4384;       !- X,Y,Z Vertex 4 {m}

OS:Surface,
  {dc5c646d-92a9-4d84-bb45-00bca935e4c5}, !- Handle
  Surface 6,                              !- Name
  RoofCeiling,                            !- Surface Type
  ,                                       !- Construction Name
  {9c47c83c-4628-44d2-a690-1d5d2311f7bb}, !- Space Name
  Surface,                                !- Outside Boundary Condition
  {4c1d9208-21b5-43e3-934e-104387194f68}, !- Outside Boundary Condition Object
  NoSun,                                  !- Sun Exposure
  NoWind,                                 !- Wind Exposure
  ,                                       !- View Factor to Ground
  ,                                       !- Number of Vertices
  11.6729512977653, -3.048, 2.4384,       !- X,Y,Z Vertex 1 {m}
  11.6729512977653, 3.048, 2.4384,        !- X,Y,Z Vertex 2 {m}
  5.57695129776527, 3.048, 2.4384,        !- X,Y,Z Vertex 3 {m}
  5.57695129776527, -3.048, 2.4384;       !- X,Y,Z Vertex 4 {m}

OS:SpaceType,
  {ad892145-79dc-4b7a-a9aa-24030280c9cc}, !- Handle
  Space Type 1,                           !- Name
  ,                                       !- Default Construction Set Name
  ,                                       !- Default Schedule Set Name
  ,                                       !- Group Rendering Name
  ,                                       !- Design Specification Outdoor Air Object Name
  ,                                       !- Standards Template
  ,                                       !- Standards Building Type
  garage;                                 !- Standards Space Type

OS:Space,
  {1befdfe3-8352-412b-a5da-2d53e159a600}, !- Handle
  living space,                           !- Name
  {d457c33d-1846-46f3-b99f-cf673c7dad38}, !- Space Type Name
  ,                                       !- Default Construction Set Name
  ,                                       !- Default Schedule Set Name
  -0,                                     !- Direction of Relative North {deg}
  0,                                      !- X Origin {m}
  0,                                      !- Y Origin {m}
  0,                                      !- Z Origin {m}
  ,                                       !- Building Story Name
  {fb2b7620-6f25-4cfe-a2fd-244cb7a073b9}, !- Thermal Zone Name
  ,                                       !- Part of Total Floor Area
  ,                                       !- Design Specification Outdoor Air Object Name
  {dc9ee82e-8ad2-4883-96e4-9720485e23b8}; !- Building Unit Name

OS:Surface,
  {2f73c5ff-de02-4bcf-942a-6b1d4251992a}, !- Handle
  Surface 7,                              !- Name
  Floor,                                  !- Surface Type
  ,                                       !- Construction Name
  {1befdfe3-8352-412b-a5da-2d53e159a600}, !- Space Name
  Surface,                                !- Outside Boundary Condition
  {e8548ca4-9bd6-434f-a603-a3abc407dae7}, !- Outside Boundary Condition Object
  NoSun,                                  !- Sun Exposure
  NoWind,                                 !- Wind Exposure
  ,                                       !- View Factor to Ground
  ,                                       !- Number of Vertices
  0, 0, 0,                                !- X,Y,Z Vertex 1 {m}
  0, 5.83647564888264, 0,                 !- X,Y,Z Vertex 2 {m}
  11.6729512977653, 5.83647564888264, 0,  !- X,Y,Z Vertex 3 {m}
  11.6729512977653, 3.048, 0,             !- X,Y,Z Vertex 4 {m}
  5.57695129776527, 3.048, 0,             !- X,Y,Z Vertex 5 {m}
  5.57695129776527, 0, 0;                 !- X,Y,Z Vertex 6 {m}

OS:Surface,
  {28c1528d-86b3-41da-92ba-1df503cb9806}, !- Handle
  Surface 8,                              !- Name
  Wall,                                   !- Surface Type
  ,                                       !- Construction Name
  {1befdfe3-8352-412b-a5da-2d53e159a600}, !- Space Name
  Outdoors,                               !- Outside Boundary Condition
  ,                                       !- Outside Boundary Condition Object
  SunExposed,                             !- Sun Exposure
  WindExposed,                            !- Wind Exposure
  ,                                       !- View Factor to Ground
  ,                                       !- Number of Vertices
  0, 5.83647564888264, 2.4384,            !- X,Y,Z Vertex 1 {m}
  0, 5.83647564888264, 0,                 !- X,Y,Z Vertex 2 {m}
  0, 0, 0,                                !- X,Y,Z Vertex 3 {m}
  0, 0, 2.4384;                           !- X,Y,Z Vertex 4 {m}

OS:Surface,
  {09379a02-a12d-42de-8e6a-d79407db56b1}, !- Handle
  Surface 9,                              !- Name
  Wall,                                   !- Surface Type
  ,                                       !- Construction Name
  {1befdfe3-8352-412b-a5da-2d53e159a600}, !- Space Name
  Outdoors,                               !- Outside Boundary Condition
  ,                                       !- Outside Boundary Condition Object
  SunExposed,                             !- Sun Exposure
  WindExposed,                            !- Wind Exposure
  ,                                       !- View Factor to Ground
  ,                                       !- Number of Vertices
  11.6729512977653, 5.83647564888264, 2.4384, !- X,Y,Z Vertex 1 {m}
  11.6729512977653, 5.83647564888264, 0,  !- X,Y,Z Vertex 2 {m}
  0, 5.83647564888264, 0,                 !- X,Y,Z Vertex 3 {m}
  0, 5.83647564888264, 2.4384;            !- X,Y,Z Vertex 4 {m}

OS:Surface,
  {804092f9-fb0f-4d29-8629-9451ebe49e9a}, !- Handle
  Surface 10,                             !- Name
  Wall,                                   !- Surface Type
  ,                                       !- Construction Name
  {1befdfe3-8352-412b-a5da-2d53e159a600}, !- Space Name
  Outdoors,                               !- Outside Boundary Condition
  ,                                       !- Outside Boundary Condition Object
  SunExposed,                             !- Sun Exposure
  WindExposed,                            !- Wind Exposure
  ,                                       !- View Factor to Ground
  ,                                       !- Number of Vertices
  11.6729512977653, 3.048, 2.4384,        !- X,Y,Z Vertex 1 {m}
  11.6729512977653, 3.048, 0,             !- X,Y,Z Vertex 2 {m}
  11.6729512977653, 5.83647564888264, 0,  !- X,Y,Z Vertex 3 {m}
  11.6729512977653, 5.83647564888264, 2.4384; !- X,Y,Z Vertex 4 {m}

OS:Surface,
  {c386cfa5-eadb-4230-b7da-b7db0438058f}, !- Handle
  Surface 11,                             !- Name
  Wall,                                   !- Surface Type
  ,                                       !- Construction Name
  {1befdfe3-8352-412b-a5da-2d53e159a600}, !- Space Name
  Surface,                                !- Outside Boundary Condition
  {ca8c5b06-66cf-4bcd-b8eb-eed12c2d65c9}, !- Outside Boundary Condition Object
  NoSun,                                  !- Sun Exposure
  NoWind,                                 !- Wind Exposure
  ,                                       !- View Factor to Ground
  ,                                       !- Number of Vertices
  5.57695129776527, 3.048, 2.4384,        !- X,Y,Z Vertex 1 {m}
  5.57695129776527, 3.048, 0,             !- X,Y,Z Vertex 2 {m}
  11.6729512977653, 3.048, 0,             !- X,Y,Z Vertex 3 {m}
  11.6729512977653, 3.048, 2.4384;        !- X,Y,Z Vertex 4 {m}

OS:Surface,
  {35805dfd-6f8e-4c44-af2e-4f7e539c17a4}, !- Handle
  Surface 12,                             !- Name
  Wall,                                   !- Surface Type
  ,                                       !- Construction Name
  {1befdfe3-8352-412b-a5da-2d53e159a600}, !- Space Name
  Surface,                                !- Outside Boundary Condition
  {2d616efc-a456-4664-8c0b-6f8345688eed}, !- Outside Boundary Condition Object
  NoSun,                                  !- Sun Exposure
  NoWind,                                 !- Wind Exposure
  ,                                       !- View Factor to Ground
  ,                                       !- Number of Vertices
  5.57695129776527, 0, 2.4384,            !- X,Y,Z Vertex 1 {m}
  5.57695129776527, 0, 0,                 !- X,Y,Z Vertex 2 {m}
  5.57695129776527, 3.048, 0,             !- X,Y,Z Vertex 3 {m}
  5.57695129776527, 3.048, 2.4384;        !- X,Y,Z Vertex 4 {m}

OS:Surface,
  {a28c511d-ea0f-403b-ad9b-183a5f021f70}, !- Handle
  Surface 13,                             !- Name
  Wall,                                   !- Surface Type
  ,                                       !- Construction Name
  {1befdfe3-8352-412b-a5da-2d53e159a600}, !- Space Name
  Outdoors,                               !- Outside Boundary Condition
  ,                                       !- Outside Boundary Condition Object
  SunExposed,                             !- Sun Exposure
  WindExposed,                            !- Wind Exposure
  ,                                       !- View Factor to Ground
  ,                                       !- Number of Vertices
  0, 0, 2.4384,                           !- X,Y,Z Vertex 1 {m}
  0, 0, 0,                                !- X,Y,Z Vertex 2 {m}
  5.57695129776527, 0, 0,                 !- X,Y,Z Vertex 3 {m}
  5.57695129776527, 0, 2.4384;            !- X,Y,Z Vertex 4 {m}

OS:Surface,
  {0c75b195-a416-4e8a-bcf9-34cf5e1e0185}, !- Handle
  Surface 14,                             !- Name
  RoofCeiling,                            !- Surface Type
  ,                                       !- Construction Name
  {1befdfe3-8352-412b-a5da-2d53e159a600}, !- Space Name
  Surface,                                !- Outside Boundary Condition
  {a1ea5a4a-379b-43fb-9177-9ab7c6275503}, !- Outside Boundary Condition Object
  NoSun,                                  !- Sun Exposure
  NoWind,                                 !- Wind Exposure
  ,                                       !- View Factor to Ground
  ,                                       !- Number of Vertices
  5.57695129776527, 0, 2.4384,            !- X,Y,Z Vertex 1 {m}
  5.57695129776527, 3.048, 2.4384,        !- X,Y,Z Vertex 2 {m}