!- NOTE: Auto-generated from /test/osw_files/SFD_HVACSizing_Equip_MSHP_BB_Fixed.osw

OS:Version,
  {4ed60251-4dfe-49b4-aecf-09e7af8ba1b1}, !- Handle
  2.9.1;                                  !- Version Identifier

OS:SimulationControl,
  {4d748df2-f596-4eed-9acb-4ff90fa4f4f0}, !- Handle
  ,                                       !- Do Zone Sizing Calculation
  ,                                       !- Do System Sizing Calculation
  ,                                       !- Do Plant Sizing Calculation
  No;                                     !- Run Simulation for Sizing Periods

OS:Timestep,
  {44190550-5aca-4c4e-ac16-0ac4a49e357a}, !- Handle
  6;                                      !- Number of Timesteps per Hour

OS:ShadowCalculation,
  {76ada354-2103-4776-a692-a0d5895d40fd}, !- Handle
  20,                                     !- Calculation Frequency
  200;                                    !- Maximum Figures in Shadow Overlap Calculations

OS:SurfaceConvectionAlgorithm:Outside,
  {e83b9477-c696-4846-9478-c353b548e7b5}, !- Handle
  DOE-2;                                  !- Algorithm

OS:SurfaceConvectionAlgorithm:Inside,
  {1848ec64-6e62-48e5-8a17-177cbbba26c0}, !- Handle
  TARP;                                   !- Algorithm

OS:ZoneCapacitanceMultiplier:ResearchSpecial,
  {42e36252-0268-4a8a-830d-15f0f31d703a}, !- Handle
  ,                                       !- Temperature Capacity Multiplier
  15,                                     !- Humidity Capacity Multiplier
  ;                                       !- Carbon Dioxide Capacity Multiplier

OS:RunPeriod,
  {4382eaf0-f76e-4032-824d-5168d27a81e4}, !- Handle
  Run Period 1,                           !- Name
  1,                                      !- Begin Month
  1,                                      !- Begin Day of Month
  12,                                     !- End Month
  31,                                     !- End Day of Month
  ,                                       !- Use Weather File Holidays and Special Days
  ,                                       !- Use Weather File Daylight Saving Period
  ,                                       !- Apply Weekend Holiday Rule
  ,                                       !- Use Weather File Rain Indicators
  ,                                       !- Use Weather File Snow Indicators
  ;                                       !- Number of Times Runperiod to be Repeated

OS:YearDescription,
  {c1fe9b1f-261c-4b0a-9ea4-56626d01a147}, !- Handle
  2007,                                   !- Calendar Year
  ,                                       !- Day of Week for Start Day
  ;                                       !- Is Leap Year

OS:WeatherFile,
  {f3dca9c5-dc2a-4f34-8447-9c3d17adecff}, !- Handle
  Denver Intl Ap,                         !- City
  CO,                                     !- State Province Region
  USA,                                    !- Country
  TMY3,                                   !- Data Source
  725650,                                 !- WMO Number
  39.83,                                  !- Latitude {deg}
  -104.65,                                !- Longitude {deg}
  -7,                                     !- Time Zone {hr}
  1650,                                   !- Elevation {m}
  file:../weather/USA_CO_Denver.Intl.AP.725650_TMY3.epw, !- Url
  E23378AA;                               !- Checksum

OS:AdditionalProperties,
  {7ad42695-d2a8-40e7-84ed-cec0afcb8a9f}, !- Handle
  {f3dca9c5-dc2a-4f34-8447-9c3d17adecff}, !- Object Name
  EPWHeaderCity,                          !- Feature Name 1
  String,                                 !- Feature Data Type 1
  Denver Intl Ap,                         !- Feature Value 1
  EPWHeaderState,                         !- Feature Name 2
  String,                                 !- Feature Data Type 2
  CO,                                     !- Feature Value 2
  EPWHeaderCountry,                       !- Feature Name 3
  String,                                 !- Feature Data Type 3
  USA,                                    !- Feature Value 3
  EPWHeaderDataSource,                    !- Feature Name 4
  String,                                 !- Feature Data Type 4
  TMY3,                                   !- Feature Value 4
  EPWHeaderStation,                       !- Feature Name 5
  String,                                 !- Feature Data Type 5
  725650,                                 !- Feature Value 5
  EPWHeaderLatitude,                      !- Feature Name 6
  Double,                                 !- Feature Data Type 6
  39.829999999999998,                     !- Feature Value 6
  EPWHeaderLongitude,                     !- Feature Name 7
  Double,                                 !- Feature Data Type 7
  -104.65000000000001,                    !- Feature Value 7
  EPWHeaderTimezone,                      !- Feature Name 8
  Double,                                 !- Feature Data Type 8
  -7,                                     !- Feature Value 8
  EPWHeaderAltitude,                      !- Feature Name 9
  Double,                                 !- Feature Data Type 9
  5413.3858267716532,                     !- Feature Value 9
  EPWHeaderLocalPressure,                 !- Feature Name 10
  Double,                                 !- Feature Data Type 10
  0.81937567683596546,                    !- Feature Value 10
  EPWHeaderRecordsPerHour,                !- Feature Name 11
  Double,                                 !- Feature Data Type 11
  0,                                      !- Feature Value 11
  EPWDataAnnualAvgDrybulb,                !- Feature Name 12
  Double,                                 !- Feature Data Type 12
  51.575616438356228,                     !- Feature Value 12
  EPWDataAnnualMinDrybulb,                !- Feature Name 13
  Double,                                 !- Feature Data Type 13
  -2.9200000000000017,                    !- Feature Value 13
  EPWDataAnnualMaxDrybulb,                !- Feature Name 14
  Double,                                 !- Feature Data Type 14
  104,                                    !- Feature Value 14
  EPWDataCDD50F,                          !- Feature Name 15
  Double,                                 !- Feature Data Type 15
  3072.2925000000005,                     !- Feature Value 15
  EPWDataCDD65F,                          !- Feature Name 16
  Double,                                 !- Feature Data Type 16
  883.62000000000035,                     !- Feature Value 16
  EPWDataHDD50F,                          !- Feature Name 17
  Double,                                 !- Feature Data Type 17
  2497.1925000000001,                     !- Feature Value 17
  EPWDataHDD65F,                          !- Feature Name 18
  Double,                                 !- Feature Data Type 18
  5783.5200000000013,                     !- Feature Value 18
  EPWDataAnnualAvgWindspeed,              !- Feature Name 19
  Double,                                 !- Feature Data Type 19
  3.9165296803649667,                     !- Feature Value 19
  EPWDataMonthlyAvgDrybulbs,              !- Feature Name 20
  String,                                 !- Feature Data Type 20
  33.4191935483871&#4431.90142857142857&#4443.02620967741937&#4442.48624999999999&#4459.877741935483854&#4473.57574999999997&#4472.07975806451608&#4472.70008064516134&#4466.49200000000006&#4450.079112903225806&#4437.218250000000005&#4434.582177419354835, !- Feature Value 20
  EPWDataGroundMonthlyTemps,              !- Feature Name 21
  String,                                 !- Feature Data Type 21
  44.08306285945173&#4440.89570904991865&#4440.64045432632048&#4442.153016571250646&#4448.225111118704206&#4454.268919273837525&#4459.508577937551024&#4462.82777283423508&#4463.10975667174995&#4460.41014950381947&#4455.304105212311526&#4449.445696474514364, !- Feature Value 21
  EPWDataWSF,                             !- Feature Name 22
  Double,                                 !- Feature Data Type 22
  0.58999999999999997,                    !- Feature Value 22
  EPWDataMonthlyAvgDailyHighDrybulbs,     !- Feature Name 23
  String,                                 !- Feature Data Type 23
  47.41032258064516&#4446.58642857142857&#4455.15032258064517&#4453.708&#4472.80193548387098&#4488.67600000000002&#4486.1858064516129&#4485.87225806451613&#4482.082&#4463.18064516129033&#4448.73400000000001&#4448.87935483870968, !- Feature Value 23
  EPWDataMonthlyAvgDailyLowDrybulbs,      !- Feature Name 24
  String,                                 !- Feature Data Type 24
  19.347741935483874&#4419.856428571428573&#4430.316129032258065&#4431.112&#4447.41612903225806&#4457.901999999999994&#4459.063870967741934&#4460.956774193548384&#4452.352000000000004&#4438.41612903225806&#4427.002000000000002&#4423.02903225806451, !- Feature Value 24
  EPWDesignHeatingDrybulb,                !- Feature Name 25
  Double,                                 !- Feature Data Type 25
  12.02,                                  !- Feature Value 25
  EPWDesignHeatingWindspeed,              !- Feature Name 26
  Double,                                 !- Feature Data Type 26
  2.8062500000000004,                     !- Feature Value 26
  EPWDesignCoolingDrybulb,                !- Feature Name 27
  Double,                                 !- Feature Data Type 27
  91.939999999999998,                     !- Feature Value 27
  EPWDesignCoolingWetbulb,                !- Feature Name 28
  Double,                                 !- Feature Data Type 28
  59.95131430195849,                      !- Feature Value 28
  EPWDesignCoolingHumidityRatio,          !- Feature Name 29
  Double,                                 !- Feature Data Type 29
  0.0059161086834698092,                  !- Feature Value 29
  EPWDesignCoolingWindspeed,              !- Feature Name 30
  Double,                                 !- Feature Data Type 30
  3.7999999999999989,                     !- Feature Value 30
  EPWDesignDailyTemperatureRange,         !- Feature Name 31
  Double,                                 !- Feature Data Type 31
  24.915483870967748,                     !- Feature Value 31
  EPWDesignDehumidDrybulb,                !- Feature Name 32
  Double,                                 !- Feature Data Type 32
  67.996785714285721,                     !- Feature Value 32
  EPWDesignDehumidHumidityRatio,          !- Feature Name 33
  Double,                                 !- Feature Data Type 33
  0.012133744170488724,                   !- Feature Value 33
  EPWDesignCoolingDirectNormal,           !- Feature Name 34
  Double,                                 !- Feature Data Type 34
  985,                                    !- Feature Value 34
  EPWDesignCoolingDiffuseHorizontal,      !- Feature Name 35
  Double,                                 !- Feature Data Type 35
  84;                                     !- Feature Value 35

OS:Site,
  {f5179fed-0341-4897-8080-7a8407cd9d63}, !- Handle
  Denver Intl Ap_CO_USA,                  !- Name
  39.83,                                  !- Latitude {deg}
  -104.65,                                !- Longitude {deg}
  -7,                                     !- Time Zone {hr}
  1650,                                   !- Elevation {m}
  ;                                       !- Terrain

OS:ClimateZones,
  {2bf59792-f527-4caa-be4e-c6d57960b75b}, !- Handle
  ,                                       !- Active Institution
  ,                                       !- Active Year
  ,                                       !- Climate Zone Institution Name 1
  ,                                       !- Climate Zone Document Name 1
  ,                                       !- Climate Zone Document Year 1
  ,                                       !- Climate Zone Value 1
  Building America,                       !- Climate Zone Institution Name 2
  ,                                       !- Climate Zone Document Name 2
  0,                                      !- Climate Zone Document Year 2
  Cold;                                   !- Climate Zone Value 2

OS:Site:WaterMainsTemperature,
  {daa7bd7e-4262-4319-877b-cf96ecab74ac}, !- Handle
  Correlation,                            !- Calculation Method
  ,                                       !- Temperature Schedule Name
  10.8753424657535,                       !- Annual Average Outdoor Air Temperature {C}
  23.1524007936508;                       !- Maximum Difference In Monthly Average Outdoor Air Temperatures {deltaC}

OS:RunPeriodControl:DaylightSavingTime,
  {d4c99fd1-0cc2-4bc6-87e3-1ee41f4d4a55}, !- Handle
  4/7,                                    !- Start Date
  10/26;                                  !- End Date

OS:Site:GroundTemperature:Deep,
  {5197fe9b-1c32-46d3-b652-6419a2546267}, !- Handle
  10.8753424657535,                       !- January Deep Ground Temperature {C}
  10.8753424657535,                       !- February Deep Ground Temperature {C}
  10.8753424657535,                       !- March Deep Ground Temperature {C}
  10.8753424657535,                       !- April Deep Ground Temperature {C}
  10.8753424657535,                       !- May Deep Ground Temperature {C}
  10.8753424657535,                       !- June Deep Ground Temperature {C}
  10.8753424657535,                       !- July Deep Ground Temperature {C}
  10.8753424657535,                       !- August Deep Ground Temperature {C}
  10.8753424657535,                       !- September Deep Ground Temperature {C}
  10.8753424657535,                       !- October Deep Ground Temperature {C}
  10.8753424657535,                       !- November Deep Ground Temperature {C}
  10.8753424657535;                       !- December Deep Ground Temperature {C}

OS:ThermalZone,
  {3b1f4256-95fd-4334-85d0-255267fa5d6e}, !- Handle
  living zone,                            !- Name
  ,                                       !- Multiplier
  ,                                       !- Ceiling Height {m}
  ,                                       !- Volume {m3}
  ,                                       !- Floor Area {m2}
  ,                                       !- Zone Inside Convection Algorithm
  ,                                       !- Zone Outside Convection Algorithm
  ,                                       !- Zone Conditioning Equipment List Name
  {d51cb98f-513a-4754-870e-73db9b778c16}, !- Zone Air Inlet Port List
  {b69d95ce-53c4-4fe3-8905-339a22060d21}, !- Zone Air Exhaust Port List
  {ab32a354-fc62-4fbd-8dbe-1d56522b9098}, !- Zone Air Node Name
  {7e01fb11-761b-4b3f-b493-2f9a3fb25e67}, !- Zone Return Air Port List
  ,                                       !- Primary Daylighting Control Name
  ,                                       !- Fraction of Zone Controlled by Primary Daylighting Control
  ,                                       !- Secondary Daylighting Control Name
  ,                                       !- Fraction of Zone Controlled by Secondary Daylighting Control
  ,                                       !- Illuminance Map Name
  ,                                       !- Group Rendering Name
  ,                                       !- Thermostat Name
  No;                                     !- Use Ideal Air Loads

OS:Node,
  {af33c54b-aff6-4f53-8123-4da8e705b7fd}, !- Handle
  Node 1,                                 !- Name
  {ab32a354-fc62-4fbd-8dbe-1d56522b9098}, !- Inlet Port
  ;                                       !- Outlet Port

OS:Connection,
  {ab32a354-fc62-4fbd-8dbe-1d56522b9098}, !- Handle
  {8d916f4b-e196-4b85-8ab8-90ce88d655de}, !- Name
  {3b1f4256-95fd-4334-85d0-255267fa5d6e}, !- Source Object
  11,                                     !- Outlet Port
  {af33c54b-aff6-4f53-8123-4da8e705b7fd}, !- Target Object
  2;                                      !- Inlet Port

OS:PortList,
  {d51cb98f-513a-4754-870e-73db9b778c16}, !- Handle
  {8b7922fa-c037-49f3-b959-7ad31c433cf5}, !- Name
  {3b1f4256-95fd-4334-85d0-255267fa5d6e}; !- HVAC Component

OS:PortList,
  {b69d95ce-53c4-4fe3-8905-339a22060d21}, !- Handle
  {c1b56cf1-8c62-4cfc-bcbf-ffdffd385a3e}, !- Name
  {3b1f4256-95fd-4334-85d0-255267fa5d6e}; !- HVAC Component

OS:PortList,
  {7e01fb11-761b-4b3f-b493-2f9a3fb25e67}, !- Handle
  {c422546e-32a7-40be-835a-5349de834d11}, !- Name
  {3b1f4256-95fd-4334-85d0-255267fa5d6e}; !- HVAC Component

OS:Sizing:Zone,
  {dee39750-dca8-4b3d-b6d2-7859f2376d49}, !- Handle
  {3b1f4256-95fd-4334-85d0-255267fa5d6e}, !- Zone or ZoneList Name
  SupplyAirTemperature,                   !- Zone Cooling Design Supply Air Temperature Input Method
  14,                                     !- Zone Cooling Design Supply Air Temperature {C}
  11.11,                                  !- Zone Cooling Design Supply Air Temperature Difference {deltaC}
  SupplyAirTemperature,                   !- Zone Heating Design Supply Air Temperature Input Method
  40,                                     !- Zone Heating Design Supply Air Temperature {C}
  11.11,                                  !- Zone Heating Design Supply Air Temperature Difference {deltaC}
  0.0085,                                 !- Zone Cooling Design Supply Air Humidity Ratio {kg-H2O/kg-air}
  0.008,                                  !- Zone Heating Design Supply Air Humidity Ratio {kg-H2O/kg-air}
  ,                                       !- Zone Heating Sizing Factor
  ,                                       !- Zone Cooling Sizing Factor
  DesignDay,                              !- Cooling Design Air Flow Method
  ,                                       !- Cooling Design Air Flow Rate {m3/s}
  ,                                       !- Cooling Minimum Air Flow per Zone Floor Area {m3/s-m2}
  ,                                       !- Cooling Minimum Air Flow {m3/s}
  ,                                       !- Cooling Minimum Air Flow Fraction
  DesignDay,                              !- Heating Design Air Flow Method
  ,                                       !- Heating Design Air Flow Rate {m3/s}
  ,                                       !- Heating Maximum Air Flow per Zone Floor Area {m3/s-m2}
  ,                                       !- Heating Maximum Air Flow {m3/s}
  ,                                       !- Heating Maximum Air Flow Fraction
  ,                                       !- Design Zone Air Distribution Effectiveness in Cooling Mode
  ,                                       !- Design Zone Air Distribution Effectiveness in Heating Mode
  No,                                     !- Account for Dedicated Outdoor Air System
  NeutralSupplyAir,                       !- Dedicated Outdoor Air System Control Strategy
  autosize,                               !- Dedicated Outdoor Air Low Setpoint Temperature for Design {C}
  autosize;                               !- Dedicated Outdoor Air High Setpoint Temperature for Design {C}

OS:ZoneHVAC:EquipmentList,
  {8f6b8628-8a28-44a2-9ac8-4a96c1bd3b64}, !- Handle
  Zone HVAC Equipment List 1,             !- Name
  {3b1f4256-95fd-4334-85d0-255267fa5d6e}; !- Thermal Zone

OS:ThermalZone,
  {bdeeaf71-c078-44b0-95e5-94e62f546cd2}, !- Handle
  garage zone,                            !- Name
  ,                                       !- Multiplier
  ,                                       !- Ceiling Height {m}
  ,                                       !- Volume {m3}
  ,                                       !- Floor Area {m2}
  ,                                       !- Zone Inside Convection Algorithm
  ,                                       !- Zone Outside Convection Algorithm
  ,                                       !- Zone Conditioning Equipment List Name
  {38aa94ba-f04c-46a7-829a-8cab85846018}, !- Zone Air Inlet Port List
  {05b8b0a1-47c5-4d4f-83e9-9de49a2de7e8}, !- Zone Air Exhaust Port List
  {d97ed4c9-a12b-432f-8806-a0daf68574bb}, !- Zone Air Node Name
  {9ffb830b-d679-4549-912a-457ce21c2f65}, !- Zone Return Air Port List
  ,                                       !- Primary Daylighting Control Name
  ,                                       !- Fraction of Zone Controlled by Primary Daylighting Control
  ,                                       !- Secondary Daylighting Control Name
  ,                                       !- Fraction of Zone Controlled by Secondary Daylighting Control
  ,                                       !- Illuminance Map Name
  ,                                       !- Group Rendering Name
  ,                                       !- Thermostat Name
  No;                                     !- Use Ideal Air Loads

OS:Node,
  {0e958cef-080b-4f93-bdc0-2dc5fe304225}, !- Handle
  Node 2,                                 !- Name
  {d97ed4c9-a12b-432f-8806-a0daf68574bb}, !- Inlet Port
  ;                                       !- Outlet Port

OS:Connection,
  {d97ed4c9-a12b-432f-8806-a0daf68574bb}, !- Handle
  {d5f93a41-be8e-40cc-8a9d-e8e70d830da1}, !- Name
  {bdeeaf71-c078-44b0-95e5-94e62f546cd2}, !- Source Object
  11,                                     !- Outlet Port
  {0e958cef-080b-4f93-bdc0-2dc5fe304225}, !- Target Object
  2;                                      !- Inlet Port

OS:PortList,
  {38aa94ba-f04c-46a7-829a-8cab85846018}, !- Handle
  {65961ebe-616a-4416-8317-014ab060accb}, !- Name
  {bdeeaf71-c078-44b0-95e5-94e62f546cd2}; !- HVAC Component

OS:PortList,
  {05b8b0a1-47c5-4d4f-83e9-9de49a2de7e8}, !- Handle
  {ded93237-46e4-486d-b541-71eef54db848}, !- Name
  {bdeeaf71-c078-44b0-95e5-94e62f546cd2}; !- HVAC Component

OS:PortList,
  {9ffb830b-d679-4549-912a-457ce21c2f65}, !- Handle
  {9f45ee98-fe36-49a1-87e8-ed5944410dfc}, !- Name
  {bdeeaf71-c078-44b0-95e5-94e62f546cd2}; !- HVAC Component

OS:Sizing:Zone,
  {e4810ec1-99fd-49ba-9fa9-ad037fe04272}, !- Handle
  {bdeeaf71-c078-44b0-95e5-94e62f546cd2}, !- Zone or ZoneList Name
  SupplyAirTemperature,                   !- Zone Cooling Design Supply Air Temperature Input Method
  14,                                     !- Zone Cooling Design Supply Air Temperature {C}
  11.11,                                  !- Zone Cooling Design Supply Air Temperature Difference {deltaC}
  SupplyAirTemperature,                   !- Zone Heating Design Supply Air Temperature Input Method
  40,                                     !- Zone Heating Design Supply Air Temperature {C}
  11.11,                                  !- Zone Heating Design Supply Air Temperature Difference {deltaC}
  0.0085,                                 !- Zone Cooling Design Supply Air Humidity Ratio {kg-H2O/kg-air}
  0.008,                                  !- Zone Heating Design Supply Air Humidity Ratio {kg-H2O/kg-air}
  ,                                       !- Zone Heating Sizing Factor
  ,                                       !- Zone Cooling Sizing Factor
  DesignDay,                              !- Cooling Design Air Flow Method
  ,                                       !- Cooling Design Air Flow Rate {m3/s}
  ,                                       !- Cooling Minimum Air Flow per Zone Floor Area {m3/s-m2}
  ,                                       !- Cooling Minimum Air Flow {m3/s}
  ,                                       !- Cooling Minimum Air Flow Fraction
  DesignDay,                              !- Heating Design Air Flow Method
  ,                                       !- Heating Design Air Flow Rate {m3/s}
  ,                                       !- Heating Maximum Air Flow per Zone Floor Area {m3/s-m2}
  ,                                       !- Heating Maximum Air Flow {m3/s}
  ,                                       !- Heating Maximum Air Flow Fraction
  ,                                       !- Design Zone Air Distribution Effectiveness in Cooling Mode
  ,                                       !- Design Zone Air Distribution Effectiveness in Heating Mode
  No,                                     !- Account for Dedicated Outdoor Air System
  NeutralSupplyAir,                       !- Dedicated Outdoor Air System Control Strategy
  autosize,                               !- Dedicated Outdoor Air Low Setpoint Temperature for Design {C}
  autosize;                               !- Dedicated Outdoor Air High Setpoint Temperature for Design {C}

OS:ZoneHVAC:EquipmentList,
  {68232c10-a789-47e5-ab44-14bad9a7c99a}, !- Handle
  Zone HVAC Equipment List 2,             !- Name
  {bdeeaf71-c078-44b0-95e5-94e62f546cd2}; !- Thermal Zone

OS:Space,
  {a5dcab65-6a32-40bd-8233-f22bfdd13e2f}, !- Handle
  garage space,                           !- Name
  {90479857-2324-49ea-a05c-6fabdd9fbf75}, !- Space Type Name
  ,                                       !- Default Construction Set Name
  ,                                       !- Default Schedule Set Name
  -0,                                     !- Direction of Relative North {deg}
  0,                                      !- X Origin {m}
  0,                                      !- Y Origin {m}
  0,                                      !- Z Origin {m}
  ,                                       !- Building Story Name
  {bdeeaf71-c078-44b0-95e5-94e62f546cd2}; !- Thermal Zone Name

OS:Surface,
  {a6b5c140-d287-4f8c-b802-00c4796552f5}, !- Handle
  Surface 1,                              !- Name
  Floor,                                  !- Surface Type
  {37c26993-17f7-45f0-bbdf-d0975f32b95a}, !- Construction Name
  {a5dcab65-6a32-40bd-8233-f22bfdd13e2f}, !- Space Name
  Foundation,                             !- Outside Boundary Condition
  {9ff66fc2-e055-4715-a23c-0f718044f059}, !- Outside Boundary Condition Object
  NoSun,                                  !- Sun Exposure
  NoWind,                                 !- Wind Exposure
  ,                                       !- View Factor to Ground
  ,                                       !- Number of Vertices
  8.91701625975123, -3.048, 0,            !- X,Y,Z Vertex 1 {m}
  8.91701625975123, 3.048, 0,             !- X,Y,Z Vertex 2 {m}
  12.5746162597512, 3.048, 0,             !- X,Y,Z Vertex 3 {m}
  12.5746162597512, -3.048, 0;            !- X,Y,Z Vertex 4 {m}

OS:Surface,
  {6066068a-434f-4d04-9fc6-4ef763753a75}, !- Handle
  Surface 2,                              !- Name
  Wall,                                   !- Surface Type
  {58f3c6dc-5bac-4d03-b065-0625ef05e07d}, !- Construction Name
  {a5dcab65-6a32-40bd-8233-f22bfdd13e2f}, !- Space Name
  Surface,                                !- Outside Boundary Condition
  {028c3fa0-5401-44ae-8f19-eb75c0f2c363}, !- Outside Boundary Condition Object
  NoSun,                                  !- Sun Exposure
  NoWind,                                 !- Wind Exposure
  ,                                       !- View Factor to Ground
  ,                                       !- Number of Vertices
  8.91701625975123, 3.048, 2.4384,        !- X,Y,Z Vertex 1 {m}
  8.91701625975123, 3.048, 0,             !- X,Y,Z Vertex 2 {m}
  8.91701625975123, 0, 0,                 !- X,Y,Z Vertex 3 {m}
  8.91701625975123, 0, 2.4384;            !- X,Y,Z Vertex 4 {m}

OS:Surface,
  {390a8d3d-4328-449e-9aee-b4fad8ab3cc3}, !- Handle
  Surface 3,                              !- Name
  Wall,                                   !- Surface Type
  {58f3c6dc-5bac-4d03-b065-0625ef05e07d}, !- Construction Name
  {a5dcab65-6a32-40bd-8233-f22bfdd13e2f}, !- Space Name
  Surface,                                !- Outside Boundary Condition
  {5daa40d3-c340-4fdd-b1c6-8aa2dfefe3ef}, !- Outside Boundary Condition Object
  NoSun,                                  !- Sun Exposure
  NoWind,                                 !- Wind Exposure
  ,                                       !- View Factor to Ground
  ,                                       !- Number of Vertices
  12.5746162597512, 3.048, 2.4384,        !- X,Y,Z Vertex 1 {m}
  12.5746162597512, 3.048, 0,             !- X,Y,Z Vertex 2 {m}
  8.91701625975123, 3.048, 0,             !- X,Y,Z Vertex 3 {m}
  8.91701625975123, 3.048, 2.4384;        !- X,Y,Z Vertex 4 {m}

OS:Surface,
  {f12e245e-48b8-441f-86b3-85578b96a479}, !- Handle
  Surface 4,                              !- Name
  Wall,                                   !- Surface Type
  {05612913-e69b-4afb-99e3-5fe9da6ee518}, !- Construction Name
  {a5dcab65-6a32-40bd-8233-f22bfdd13e2f}, !- Space Name
  Outdoors,                               !- Outside Boundary Condition
  ,                                       !- Outside Boundary Condition Object
  SunExposed,                             !- Sun Exposure
  WindExposed,                            !- Wind Exposure
  ,                                       !- View Factor to Ground
  ,                                       !- Number of Vertices
  12.5746162597512, -3.048, 2.4384,       !- X,Y,Z Vertex 1 {m}
  12.5746162597512, -3.048, 0,            !- X,Y,Z Vertex 2 {m}
  12.5746162597512, 3.048, 0,             !- X,Y,Z Vertex 3 {m}
  12.5746162597512, 3.048, 2.4384;        !- X,Y,Z Vertex 4 {m}

OS:Surface,
  {6d8144c9-93bc-4350-9f67-d5a9ff22c543}, !- Handle
  Surface 5,                              !- Name
  Wall,                                   !- Surface Type
  {05612913-e69b-4afb-99e3-5fe9da6ee518}, !- Construction Name
  {a5dcab65-6a32-40bd-8233-f22bfdd13e2f}, !- Space Name
  Outdoors,                               !- Outside Boundary Condition
  ,                                       !- Outside Boundary Condition Object
  SunExposed,                             !- Sun Exposure
  WindExposed,                            !- Wind Exposure
  ,                                       !- View Factor to Ground
  ,                                       !- Number of Vertices
  8.91701625975123, -3.048, 2.4384,       !- X,Y,Z Vertex 1 {m}
  8.91701625975123, -3.048, 0,            !- X,Y,Z Vertex 2 {m}
  12.5746162597512, -3.048, 0,            !- X,Y,Z Vertex 3 {m}
  12.5746162597512, -3.048, 2.4384;       !- X,Y,Z Vertex 4 {m}

OS:Surface,
  {908809ad-5f04-449a-8250-b3557fa9c890}, !- Handle
  Surface 6,                              !- Name