!- NOTE: Auto-generated from /test/osw_files/SFD_HVACSizing_Load_2story_S_GRG_FA.osw

OS:Version,
  {48df8b9b-7054-4456-91c9-bc5dcde7d49f}, !- Handle
  2.9.1;                                  !- Version Identifier

OS:SimulationControl,
  {30d472b8-7601-49a8-a210-9d0599186745}, !- Handle
  ,                                       !- Do Zone Sizing Calculation
  ,                                       !- Do System Sizing Calculation
  ,                                       !- Do Plant Sizing Calculation
  No;                                     !- Run Simulation for Sizing Periods

OS:Timestep,
  {2581156f-7726-4683-8ef3-775384adf4a7}, !- Handle
  6;                                      !- Number of Timesteps per Hour

OS:ShadowCalculation,
  {fda58f0f-af47-447a-b63d-6b0cfa063d96}, !- Handle
  20,                                     !- Calculation Frequency
  200;                                    !- Maximum Figures in Shadow Overlap Calculations

OS:SurfaceConvectionAlgorithm:Outside,
  {279166e6-49fb-43e1-8641-6265d6c8b999}, !- Handle
  DOE-2;                                  !- Algorithm

OS:SurfaceConvectionAlgorithm:Inside,
  {1043c249-4f9c-4f34-956b-19e8a3bebd5e}, !- Handle
  TARP;                                   !- Algorithm

OS:ZoneCapacitanceMultiplier:ResearchSpecial,
  {6326e059-95a2-4358-8522-ffe99c207581}, !- Handle
  ,                                       !- Temperature Capacity Multiplier
  15,                                     !- Humidity Capacity Multiplier
  ;                                       !- Carbon Dioxide Capacity Multiplier

OS:RunPeriod,
  {6c4d57b7-adf7-4480-9d22-de5be8f97047}, !- Handle
  Run Period 1,                           !- Name
  1,                                      !- Begin Month
  1,                                      !- Begin Day of Month
  12,                                     !- End Month
  31,                                     !- End Day of Month
  ,                                       !- Use Weather File Holidays and Special Days
  ,                                       !- Use Weather File Daylight Saving Period
  ,                                       !- Apply Weekend Holiday Rule
  ,                                       !- Use Weather File Rain Indicators
  ,                                       !- Use Weather File Snow Indicators
  ;                                       !- Number of Times Runperiod to be Repeated

OS:YearDescription,
  {9f4eeadc-031e-4ab8-9cbc-76613f97fb73}, !- Handle
  2007,                                   !- Calendar Year
  ,                                       !- Day of Week for Start Day
  ;                                       !- Is Leap Year

OS:WeatherFile,
  {88ac3ace-55fd-4dc3-b0a3-19bc8b3efd4f}, !- Handle
  Denver Intl Ap,                         !- City
  CO,                                     !- State Province Region
  USA,                                    !- Country
  TMY3,                                   !- Data Source
  725650,                                 !- WMO Number
  39.83,                                  !- Latitude {deg}
  -104.65,                                !- Longitude {deg}
  -7,                                     !- Time Zone {hr}
  1650,                                   !- Elevation {m}
  file:../weather/USA_CO_Denver.Intl.AP.725650_TMY3.epw, !- Url
  E23378AA;                               !- Checksum

OS:AdditionalProperties,
  {42cfee0c-c074-487f-b0e7-c4629bf66680}, !- Handle
  {88ac3ace-55fd-4dc3-b0a3-19bc8b3efd4f}, !- Object Name
  EPWHeaderCity,                          !- Feature Name 1
  String,                                 !- Feature Data Type 1
  Denver Intl Ap,                         !- Feature Value 1
  EPWHeaderState,                         !- Feature Name 2
  String,                                 !- Feature Data Type 2
  CO,                                     !- Feature Value 2
  EPWHeaderCountry,                       !- Feature Name 3
  String,                                 !- Feature Data Type 3
  USA,                                    !- Feature Value 3
  EPWHeaderDataSource,                    !- Feature Name 4
  String,                                 !- Feature Data Type 4
  TMY3,                                   !- Feature Value 4
  EPWHeaderStation,                       !- Feature Name 5
  String,                                 !- Feature Data Type 5
  725650,                                 !- Feature Value 5
  EPWHeaderLatitude,                      !- Feature Name 6
  Double,                                 !- Feature Data Type 6
  39.829999999999998,                     !- Feature Value 6
  EPWHeaderLongitude,                     !- Feature Name 7
  Double,                                 !- Feature Data Type 7
  -104.65000000000001,                    !- Feature Value 7
  EPWHeaderTimezone,                      !- Feature Name 8
  Double,                                 !- Feature Data Type 8
  -7,                                     !- Feature Value 8
  EPWHeaderAltitude,                      !- Feature Name 9
  Double,                                 !- Feature Data Type 9
  5413.3858267716532,                     !- Feature Value 9
  EPWHeaderLocalPressure,                 !- Feature Name 10
  Double,                                 !- Feature Data Type 10
  0.81937567683596546,                    !- Feature Value 10
  EPWHeaderRecordsPerHour,                !- Feature Name 11
  Double,                                 !- Feature Data Type 11
  0,                                      !- Feature Value 11
  EPWDataAnnualAvgDrybulb,                !- Feature Name 12
  Double,                                 !- Feature Data Type 12
  51.575616438356228,                     !- Feature Value 12
  EPWDataAnnualMinDrybulb,                !- Feature Name 13
  Double,                                 !- Feature Data Type 13
  -2.9200000000000017,                    !- Feature Value 13
  EPWDataAnnualMaxDrybulb,                !- Feature Name 14
  Double,                                 !- Feature Data Type 14
  104,                                    !- Feature Value 14
  EPWDataCDD50F,                          !- Feature Name 15
  Double,                                 !- Feature Data Type 15
  3072.2925000000005,                     !- Feature Value 15
  EPWDataCDD65F,                          !- Feature Name 16
  Double,                                 !- Feature Data Type 16
  883.62000000000035,                     !- Feature Value 16
  EPWDataHDD50F,                          !- Feature Name 17
  Double,                                 !- Feature Data Type 17
  2497.1925000000001,                     !- Feature Value 17
  EPWDataHDD65F,                          !- Feature Name 18
  Double,                                 !- Feature Data Type 18
  5783.5200000000013,                     !- Feature Value 18
  EPWDataAnnualAvgWindspeed,              !- Feature Name 19
  Double,                                 !- Feature Data Type 19
  3.9165296803649667,                     !- Feature Value 19
  EPWDataMonthlyAvgDrybulbs,              !- Feature Name 20
  String,                                 !- Feature Data Type 20
  33.4191935483871&#4431.90142857142857&#4443.02620967741937&#4442.48624999999999&#4459.877741935483854&#4473.57574999999997&#4472.07975806451608&#4472.70008064516134&#4466.49200000000006&#4450.079112903225806&#4437.218250000000005&#4434.582177419354835, !- Feature Value 20
  EPWDataGroundMonthlyTemps,              !- Feature Name 21
  String,                                 !- Feature Data Type 21
  44.08306285945173&#4440.89570904991865&#4440.64045432632048&#4442.153016571250646&#4448.225111118704206&#4454.268919273837525&#4459.508577937551024&#4462.82777283423508&#4463.10975667174995&#4460.41014950381947&#4455.304105212311526&#4449.445696474514364, !- Feature Value 21
  EPWDataWSF,                             !- Feature Name 22
  Double,                                 !- Feature Data Type 22
  0.58999999999999997,                    !- Feature Value 22
  EPWDataMonthlyAvgDailyHighDrybulbs,     !- Feature Name 23
  String,                                 !- Feature Data Type 23
  47.41032258064516&#4446.58642857142857&#4455.15032258064517&#4453.708&#4472.80193548387098&#4488.67600000000002&#4486.1858064516129&#4485.87225806451613&#4482.082&#4463.18064516129033&#4448.73400000000001&#4448.87935483870968, !- Feature Value 23
  EPWDataMonthlyAvgDailyLowDrybulbs,      !- Feature Name 24
  String,                                 !- Feature Data Type 24
  19.347741935483874&#4419.856428571428573&#4430.316129032258065&#4431.112&#4447.41612903225806&#4457.901999999999994&#4459.063870967741934&#4460.956774193548384&#4452.352000000000004&#4438.41612903225806&#4427.002000000000002&#4423.02903225806451, !- Feature Value 24
  EPWDesignHeatingDrybulb,                !- Feature Name 25
  Double,                                 !- Feature Data Type 25
  12.02,                                  !- Feature Value 25
  EPWDesignHeatingWindspeed,              !- Feature Name 26
  Double,                                 !- Feature Data Type 26
  2.8062500000000004,                     !- Feature Value 26
  EPWDesignCoolingDrybulb,                !- Feature Name 27
  Double,                                 !- Feature Data Type 27
  91.939999999999998,                     !- Feature Value 27
  EPWDesignCoolingWetbulb,                !- Feature Name 28
  Double,                                 !- Feature Data Type 28
  59.95131430195849,                      !- Feature Value 28
  EPWDesignCoolingHumidityRatio,          !- Feature Name 29
  Double,                                 !- Feature Data Type 29
  0.0059161086834698092,                  !- Feature Value 29
  EPWDesignCoolingWindspeed,              !- Feature Name 30
  Double,                                 !- Feature Data Type 30
  3.7999999999999989,                     !- Feature Value 30
  EPWDesignDailyTemperatureRange,         !- Feature Name 31
  Double,                                 !- Feature Data Type 31
  24.915483870967748,                     !- Feature Value 31
  EPWDesignDehumidDrybulb,                !- Feature Name 32
  Double,                                 !- Feature Data Type 32
  67.996785714285721,                     !- Feature Value 32
  EPWDesignDehumidHumidityRatio,          !- Feature Name 33
  Double,                                 !- Feature Data Type 33
  0.012133744170488724,                   !- Feature Value 33
  EPWDesignCoolingDirectNormal,           !- Feature Name 34
  Double,                                 !- Feature Data Type 34
  985,                                    !- Feature Value 34
  EPWDesignCoolingDiffuseHorizontal,      !- Feature Name 35
  Double,                                 !- Feature Data Type 35
  84;                                     !- Feature Value 35

OS:Site,
  {6c1cca0e-87c6-41f8-89f6-562909b5e4a3}, !- Handle
  Denver Intl Ap_CO_USA,                  !- Name
  39.83,                                  !- Latitude {deg}
  -104.65,                                !- Longitude {deg}
  -7,                                     !- Time Zone {hr}
  1650,                                   !- Elevation {m}
  Suburbs;                                !- Terrain

OS:ClimateZones,
  {4e2961fc-f8d6-43a8-a020-3194acfac617}, !- Handle
  ,                                       !- Active Institution
  ,                                       !- Active Year
  ,                                       !- Climate Zone Institution Name 1
  ,                                       !- Climate Zone Document Name 1
  ,                                       !- Climate Zone Document Year 1
  ,                                       !- Climate Zone Value 1
  Building America,                       !- Climate Zone Institution Name 2
  ,                                       !- Climate Zone Document Name 2
  0,                                      !- Climate Zone Document Year 2
  Cold;                                   !- Climate Zone Value 2

OS:Site:WaterMainsTemperature,
  {2a35860a-4aa0-431a-9a57-dc5e47d56afd}, !- Handle
  Correlation,                            !- Calculation Method
  ,                                       !- Temperature Schedule Name
  10.8753424657535,                       !- Annual Average Outdoor Air Temperature {C}
  23.1524007936508;                       !- Maximum Difference In Monthly Average Outdoor Air Temperatures {deltaC}

OS:RunPeriodControl:DaylightSavingTime,
  {6c19a61c-7cb5-4380-b973-eb0f6ac4438b}, !- Handle
  4/7,                                    !- Start Date
  10/26;                                  !- End Date

OS:Site:GroundTemperature:Deep,
  {4fdb4b4a-4e94-47c7-8bc8-14123e3b4a22}, !- Handle
  10.8753424657535,                       !- January Deep Ground Temperature {C}
  10.8753424657535,                       !- February Deep Ground Temperature {C}
  10.8753424657535,                       !- March Deep Ground Temperature {C}
  10.8753424657535,                       !- April Deep Ground Temperature {C}
  10.8753424657535,                       !- May Deep Ground Temperature {C}
  10.8753424657535,                       !- June Deep Ground Temperature {C}
  10.8753424657535,                       !- July Deep Ground Temperature {C}
  10.8753424657535,                       !- August Deep Ground Temperature {C}
  10.8753424657535,                       !- September Deep Ground Temperature {C}
  10.8753424657535,                       !- October Deep Ground Temperature {C}
  10.8753424657535,                       !- November Deep Ground Temperature {C}
  10.8753424657535;                       !- December Deep Ground Temperature {C}

OS:ThermalZone,
  {029e8003-f94c-4ed2-8431-6b20bcb5d156}, !- Handle
  living zone,                            !- Name
  ,                                       !- Multiplier
  ,                                       !- Ceiling Height {m}
  ,                                       !- Volume {m3}
  ,                                       !- Floor Area {m2}
  ,                                       !- Zone Inside Convection Algorithm
  ,                                       !- Zone Outside Convection Algorithm
  ,                                       !- Zone Conditioning Equipment List Name
  {8a194d2e-52cc-4116-9c22-ffaf3e1a84ad}, !- Zone Air Inlet Port List
  {dee9db0e-d04e-48d0-b859-a4fa8916813a}, !- Zone Air Exhaust Port List
  {1ec2f1cf-62b0-4257-a96d-690da053548f}, !- Zone Air Node Name
  {df557949-3661-4485-9705-edc99a46e8bd}, !- Zone Return Air Port List
  ,                                       !- Primary Daylighting Control Name
  ,                                       !- Fraction of Zone Controlled by Primary Daylighting Control
  ,                                       !- Secondary Daylighting Control Name
  ,                                       !- Fraction of Zone Controlled by Secondary Daylighting Control
  ,                                       !- Illuminance Map Name
  ,                                       !- Group Rendering Name
  ,                                       !- Thermostat Name
  No;                                     !- Use Ideal Air Loads

OS:Node,
  {cd662357-d319-4894-96d0-6773a5875efe}, !- Handle
  Node 1,                                 !- Name
  {1ec2f1cf-62b0-4257-a96d-690da053548f}, !- Inlet Port
  ;                                       !- Outlet Port

OS:Connection,
  {1ec2f1cf-62b0-4257-a96d-690da053548f}, !- Handle
  {8535fa82-409b-4492-930e-f8bea97159fc}, !- Name
  {029e8003-f94c-4ed2-8431-6b20bcb5d156}, !- Source Object
  11,                                     !- Outlet Port
  {cd662357-d319-4894-96d0-6773a5875efe}, !- Target Object
  2;                                      !- Inlet Port

OS:PortList,
  {8a194d2e-52cc-4116-9c22-ffaf3e1a84ad}, !- Handle
  {059e473e-c288-4b7e-be2b-e93f3cbdad49}, !- Name
  {029e8003-f94c-4ed2-8431-6b20bcb5d156}; !- HVAC Component

OS:PortList,
  {dee9db0e-d04e-48d0-b859-a4fa8916813a}, !- Handle
  {fa3ded91-8848-4bc8-af25-c8302959a299}, !- Name
  {029e8003-f94c-4ed2-8431-6b20bcb5d156}; !- HVAC Component

OS:PortList,
  {df557949-3661-4485-9705-edc99a46e8bd}, !- Handle
  {d93ab1eb-28df-464b-baf1-99dcab159d61}, !- Name
  {029e8003-f94c-4ed2-8431-6b20bcb5d156}; !- HVAC Component

OS:Sizing:Zone,
  {217e49b9-3a01-4d4d-81f5-4175a5f9b733}, !- Handle
  {029e8003-f94c-4ed2-8431-6b20bcb5d156}, !- Zone or ZoneList Name
  SupplyAirTemperature,                   !- Zone Cooling Design Supply Air Temperature Input Method
  14,                                     !- Zone Cooling Design Supply Air Temperature {C}
  11.11,                                  !- Zone Cooling Design Supply Air Temperature Difference {deltaC}
  SupplyAirTemperature,                   !- Zone Heating Design Supply Air Temperature Input Method
  40,                                     !- Zone Heating Design Supply Air Temperature {C}
  11.11,                                  !- Zone Heating Design Supply Air Temperature Difference {deltaC}
  0.0085,                                 !- Zone Cooling Design Supply Air Humidity Ratio {kg-H2O/kg-air}
  0.008,                                  !- Zone Heating Design Supply Air Humidity Ratio {kg-H2O/kg-air}
  ,                                       !- Zone Heating Sizing Factor
  ,                                       !- Zone Cooling Sizing Factor
  DesignDay,                              !- Cooling Design Air Flow Method
  ,                                       !- Cooling Design Air Flow Rate {m3/s}
  ,                                       !- Cooling Minimum Air Flow per Zone Floor Area {m3/s-m2}
  ,                                       !- Cooling Minimum Air Flow {m3/s}
  ,                                       !- Cooling Minimum Air Flow Fraction
  DesignDay,                              !- Heating Design Air Flow Method
  ,                                       !- Heating Design Air Flow Rate {m3/s}
  ,                                       !- Heating Maximum Air Flow per Zone Floor Area {m3/s-m2}
  ,                                       !- Heating Maximum Air Flow {m3/s}
  ,                                       !- Heating Maximum Air Flow Fraction
  ,                                       !- Design Zone Air Distribution Effectiveness in Cooling Mode
  ,                                       !- Design Zone Air Distribution Effectiveness in Heating Mode
  No,                                     !- Account for Dedicated Outdoor Air System
  NeutralSupplyAir,                       !- Dedicated Outdoor Air System Control Strategy
  autosize,                               !- Dedicated Outdoor Air Low Setpoint Temperature for Design {C}
  autosize;                               !- Dedicated Outdoor Air High Setpoint Temperature for Design {C}

OS:ZoneHVAC:EquipmentList,
  {60f4ea2e-9bd1-4418-8b90-83cd51969436}, !- Handle
  Zone HVAC Equipment List 1,             !- Name
  {029e8003-f94c-4ed2-8431-6b20bcb5d156}; !- Thermal Zone

OS:ThermalZone,
  {a3f63736-e94b-4558-ae20-69ed554b6e4d}, !- Handle
  garage zone,                            !- Name
  ,                                       !- Multiplier
  ,                                       !- Ceiling Height {m}
  ,                                       !- Volume {m3}
  ,                                       !- Floor Area {m2}
  ,                                       !- Zone Inside Convection Algorithm
  ,                                       !- Zone Outside Convection Algorithm
  ,                                       !- Zone Conditioning Equipment List Name
  {20bb3bdd-89ff-4c98-8710-842e4001650f}, !- Zone Air Inlet Port List
  {f9baeee3-ba6c-48db-ac03-95728ac8d393}, !- Zone Air Exhaust Port List
  {3d88a2d3-3817-4c66-a6e3-ee072d32352b}, !- Zone Air Node Name
  {040c1b05-43b8-4f0a-a405-be083eeafc12}, !- Zone Return Air Port List
  ,                                       !- Primary Daylighting Control Name
  ,                                       !- Fraction of Zone Controlled by Primary Daylighting Control
  ,                                       !- Secondary Daylighting Control Name
  ,                                       !- Fraction of Zone Controlled by Secondary Daylighting Control
  ,                                       !- Illuminance Map Name
  ,                                       !- Group Rendering Name
  ,                                       !- Thermostat Name
  No;                                     !- Use Ideal Air Loads

OS:Node,
  {35978291-c759-45b8-a45d-25310ffd6d89}, !- Handle
  Node 2,                                 !- Name
  {3d88a2d3-3817-4c66-a6e3-ee072d32352b}, !- Inlet Port
  ;                                       !- Outlet Port

OS:Connection,
  {3d88a2d3-3817-4c66-a6e3-ee072d32352b}, !- Handle
  {00c64372-74f5-4a82-8b14-317f9db7efa7}, !- Name
  {a3f63736-e94b-4558-ae20-69ed554b6e4d}, !- Source Object
  11,                                     !- Outlet Port
  {35978291-c759-45b8-a45d-25310ffd6d89}, !- Target Object
  2;                                      !- Inlet Port

OS:PortList,
  {20bb3bdd-89ff-4c98-8710-842e4001650f}, !- Handle
  {badf8caa-43e0-4b01-878f-f3ba0aaee997}, !- Name
  {a3f63736-e94b-4558-ae20-69ed554b6e4d}; !- HVAC Component

OS:PortList,
  {f9baeee3-ba6c-48db-ac03-95728ac8d393}, !- Handle
  {ad40054a-09ea-429e-be4d-59d8959a66d7}, !- Name
  {a3f63736-e94b-4558-ae20-69ed554b6e4d}; !- HVAC Component

OS:PortList,
  {040c1b05-43b8-4f0a-a405-be083eeafc12}, !- Handle
  {5d7e3127-61a8-4f0c-9e95-c506f52046a0}, !- Name
  {a3f63736-e94b-4558-ae20-69ed554b6e4d}; !- HVAC Component

OS:Sizing:Zone,
  {a325e0bd-b891-4788-a213-6f89b367d040}, !- Handle
  {a3f63736-e94b-4558-ae20-69ed554b6e4d}, !- Zone or ZoneList Name
  SupplyAirTemperature,                   !- Zone Cooling Design Supply Air Temperature Input Method
  14,                                     !- Zone Cooling Design Supply Air Temperature {C}
  11.11,                                  !- Zone Cooling Design Supply Air Temperature Difference {deltaC}
  SupplyAirTemperature,                   !- Zone Heating Design Supply Air Temperature Input Method
  40,                                     !- Zone Heating Design Supply Air Temperature {C}
  11.11,                                  !- Zone Heating Design Supply Air Temperature Difference {deltaC}
  0.0085,                                 !- Zone Cooling Design Supply Air Humidity Ratio {kg-H2O/kg-air}
  0.008,                                  !- Zone Heating Design Supply Air Humidity Ratio {kg-H2O/kg-air}
  ,                                       !- Zone Heating Sizing Factor
  ,                                       !- Zone Cooling Sizing Factor
  DesignDay,                              !- Cooling Design Air Flow Method
  ,                                       !- Cooling Design Air Flow Rate {m3/s}
  ,                                       !- Cooling Minimum Air Flow per Zone Floor Area {m3/s-m2}
  ,                                       !- Cooling Minimum Air Flow {m3/s}
  ,                                       !- Cooling Minimum Air Flow Fraction
  DesignDay,                              !- Heating Design Air Flow Method
  ,                                       !- Heating Design Air Flow Rate {m3/s}
  ,                                       !- Heating Maximum Air Flow per Zone Floor Area {m3/s-m2}
  ,                                       !- Heating Maximum Air Flow {m3/s}
  ,                                       !- Heating Maximum Air Flow Fraction
  ,                                       !- Design Zone Air Distribution Effectiveness in Cooling Mode
  ,                                       !- Design Zone Air Distribution Effectiveness in Heating Mode
  No,                                     !- Account for Dedicated Outdoor Air System
  NeutralSupplyAir,                       !- Dedicated Outdoor Air System Control Strategy
  autosize,                               !- Dedicated Outdoor Air Low Setpoint Temperature for Design {C}
  autosize;                               !- Dedicated Outdoor Air High Setpoint Temperature for Design {C}

OS:ZoneHVAC:EquipmentList,
  {bac1ca27-aef6-4473-8186-f7007c8acdc7}, !- Handle
  Zone HVAC Equipment List 2,             !- Name
  {a3f63736-e94b-4558-ae20-69ed554b6e4d}; !- Thermal Zone

OS:Space,
  {b5664add-129e-4ac9-b724-6a61340db2bb}, !- Handle
  garage space,                           !- Name
  {24ea5d01-51a5-4f61-b88d-f23cedc4d659}, !- Space Type Name
  ,                                       !- Default Construction Set Name
  ,                                       !- Default Schedule Set Name
  -0,                                     !- Direction of Relative North {deg}
  0,                                      !- X Origin {m}
  0,                                      !- Y Origin {m}
  0,                                      !- Z Origin {m}
  ,                                       !- Building Story Name
  {a3f63736-e94b-4558-ae20-69ed554b6e4d}; !- Thermal Zone Name

OS:Surface,
  {61dad98e-f9e9-4f88-88a0-7c62b7d5f777}, !- Handle
  Surface 1,                              !- Name
  Floor,                                  !- Surface Type
  {c1e899b3-8dcd-4f24-95df-bbdcb8ec8ccc}, !- Construction Name
  {b5664add-129e-4ac9-b724-6a61340db2bb}, !- Space Name
  Foundation,                             !- Outside Boundary Condition
  {c8ee82c1-08ba-43ae-8eaf-56c9cf6fa61c}, !- Outside Boundary Condition Object
  NoSun,                                  !- Sun Exposure
  NoWind,                                 !- Wind Exposure
  ,                                       !- View Factor to Ground
  ,                                       !- Number of Vertices
  7.6199999993904, -3.048, 0,             !- X,Y,Z Vertex 1 {m}
  7.6199999993904, 3.048, 0,              !- X,Y,Z Vertex 2 {m}
  11.2775999993904, 3.048, 0,             !- X,Y,Z Vertex 3 {m}
  11.2775999993904, -3.048, 0;            !- X,Y,Z Vertex 4 {m}

OS:Surface,
  {e7a36955-b723-4d6e-aaac-1d4d5bf4d678}, !- Handle
  Surface 2,                              !- Name
  Wall,                                   !- Surface Type
  {93596314-0ee2-4614-a053-cdecf3e00d2a}, !- Construction Name
  {b5664add-129e-4ac9-b724-6a61340db2bb}, !- Space Name
  Surface,                                !- Outside Boundary Condition
  {dad86276-b5ad-41f7-816e-5d5f277243d1}, !- Outside Boundary Condition Object
  NoSun,                                  !- Sun Exposure
  NoWind,                                 !- Wind Exposure
  ,                                       !- View Factor to Ground
  ,                                       !- Number of Vertices
  7.6199999993904, 3.048, 2.4384,         !- X,Y,Z Vertex 1 {m}
  7.6199999993904, 3.048, 0,              !- X,Y,Z Vertex 2 {m}
  7.6199999993904, 0, 0,                  !- X,Y,Z Vertex 3 {m}
  7.6199999993904, 0, 2.4384;             !- X,Y,Z Vertex 4 {m}

OS:Surface,
  {e429dc75-4791-4fe1-af19-3eece442a954}, !- Handle
  Surface 3,                              !- Name
  Wall,                                   !- Surface Type
  {93596314-0ee2-4614-a053-cdecf3e00d2a}, !- Construction Name
  {b5664add-129e-4ac9-b724-6a61340db2bb}, !- Space Name
  Surface,                                !- Outside Boundary Condition
  {372a746c-e0fd-43d6-88de-110648268c1b}, !- Outside Boundary Condition Object
  NoSun,                                  !- Sun Exposure
  NoWind,                                 !- Wind Exposure
  ,                                       !- View Factor to Ground
  ,                                       !- Number of Vertices
  11.2775999993904, 3.048, 2.4384,        !- X,Y,Z Vertex 1 {m}
  11.2775999993904, 3.048, 0,             !- X,Y,Z Vertex 2 {m}
  7.6199999993904, 3.048, 0,              !- X,Y,Z Vertex 3 {m}
  7.6199999993904, 3.048, 2.4384;         !- X,Y,Z Vertex 4 {m}

OS:Surface,
  {2e2fa413-7d96-4966-8403-cfb9c4db96d1}, !- Handle
  Surface 4,                              !- Name
  Wall,                                   !- Surface Type
  {d109c7f8-dfda-415e-88f1-037cc669b4f4}, !- Construction Name
  {b5664add-129e-4ac9-b724-6a61340db2bb}, !- Space Name
  Outdoors,                               !- Outside Boundary Condition
  ,                                       !- Outside Boundary Condition Object
  SunExposed,                             !- Sun Exposure
  WindExposed,                            !- Wind Exposure
  ,                                       !- View Factor to Ground
  ,                                       !- Number of Vertices
  11.2775999993904, -3.048, 2.4384,       !- X,Y,Z Vertex 1 {m}
  11.2775999993904, -3.048, 0,            !- X,Y,Z Vertex 2 {m}
  11.2775999993904, 3.048, 0,             !- X,Y,Z Vertex 3 {m}
  11.2775999993904, 3.048, 2.4384;        !- X,Y,Z Vertex 4 {m}

OS:Surface,
  {52000de1-d010-4f43-aa58-1d2f55e60fb5}, !- Handle
  Surface 5,                              !- Name
  Wall,                                   !- Surface Type
  {d109c7f8-dfda-415e-88f1-037cc669b4f4}, !- Construction Name
  {b5664add-129e-4ac9-b724-6a61340db2bb}, !- Space Name
  Outdoors,                               !- Outside Boundary Condition
  ,                                       !- Outside Boundary Condition Object
  SunExposed,                             !- Sun Exposure
  WindExposed,                            !- Wind Exposure
  ,                                       !- View Factor to Ground
  ,                                       !- Number of Vertices
  7.6199999993904, -3.048, 2.4384,        !- X,Y,Z Vertex 1 {m}
  7.6199999993904, -3.048, 0,             !- X,Y,Z Vertex 2 {m}
  11.2775999993904, -3.048, 0,            !- X,Y,Z Vertex 3 {m}
  11.2775999993904, -3.048, 2.4384;       !- X,Y,Z Vertex 4 {m}

OS:Surface,
  {f809a542-816e-493d-9fc7-b9dafcf4a9f6}, !- Handle
  Surface 6,                              !- Name