!- NOTE: Auto-generated from /test/osw_files/SFD_HVACSizing_Equip_Dehumidifier_Fixed_Miami.osw

OS:Version,
  {000fa5bf-0690-4820-aeb1-ee0306b987d8}, !- Handle
  2.9.0;                                  !- Version Identifier

OS:SimulationControl,
  {2d5f3ebc-2b52-4752-bc9c-7195033e0501}, !- Handle
  ,                                       !- Do Zone Sizing Calculation
  ,                                       !- Do System Sizing Calculation
  ,                                       !- Do Plant Sizing Calculation
  No;                                     !- Run Simulation for Sizing Periods

OS:Timestep,
  {ee8ce3f2-b96f-4ae7-9166-af405f763947}, !- Handle
  6;                                      !- Number of Timesteps per Hour

OS:ShadowCalculation,
  {1096de7e-1f37-44ed-84c6-c0a90bb89365}, !- Handle
  20,                                     !- Calculation Frequency
  200;                                    !- Maximum Figures in Shadow Overlap Calculations

OS:SurfaceConvectionAlgorithm:Outside,
  {bec6723e-64e7-4486-a2b6-3792340ceba7}, !- Handle
  DOE-2;                                  !- Algorithm

OS:SurfaceConvectionAlgorithm:Inside,
  {8b302fab-e1ee-46ec-a08f-22eae9066d5b}, !- Handle
  TARP;                                   !- Algorithm

OS:ZoneCapacitanceMultiplier:ResearchSpecial,
  {5409073d-0a72-4008-9d14-368f035112ed}, !- Handle
  ,                                       !- Temperature Capacity Multiplier
  15,                                     !- Humidity Capacity Multiplier
  ;                                       !- Carbon Dioxide Capacity Multiplier

OS:RunPeriod,
  {7240b195-c5bc-47e0-9503-34d1b14ed3eb}, !- Handle
  Run Period 1,                           !- Name
  1,                                      !- Begin Month
  1,                                      !- Begin Day of Month
  12,                                     !- End Month
  31,                                     !- End Day of Month
  ,                                       !- Use Weather File Holidays and Special Days
  ,                                       !- Use Weather File Daylight Saving Period
  ,                                       !- Apply Weekend Holiday Rule
  ,                                       !- Use Weather File Rain Indicators
  ,                                       !- Use Weather File Snow Indicators
  ;                                       !- Number of Times Runperiod to be Repeated

OS:YearDescription,
  {a5a20e2d-9952-4e12-b839-75e7b261fc63}, !- Handle
  2007,                                   !- Calendar Year
  ,                                       !- Day of Week for Start Day
  ;                                       !- Is Leap Year

OS:WeatherFile,
  {b3f38770-643d-4704-8e37-8d3f87b36da1}, !- Handle
  Miami Intl Ap,                          !- City
  FL,                                     !- State Province Region
  USA,                                    !- Country
  TMY3,                                   !- Data Source
  722020,                                 !- WMO Number
  25.82,                                  !- Latitude {deg}
  -80.3,                                  !- Longitude {deg}
  -5,                                     !- Time Zone {hr}
  11,                                     !- Elevation {m}
  file:../weather/USA_FL_Miami.Intl.AP.722020_TMY3.epw, !- Url
  7D992F19;                               !- Checksum

OS:AdditionalProperties,
  {b6360035-1547-4c56-b1fa-fca5ef8d6084}, !- Handle
  {b3f38770-643d-4704-8e37-8d3f87b36da1}, !- Object Name
  EPWHeaderCity,                          !- Feature Name 1
  String,                                 !- Feature Data Type 1
  Miami Intl Ap,                          !- Feature Value 1
  EPWHeaderState,                         !- Feature Name 2
  String,                                 !- Feature Data Type 2
  FL,                                     !- Feature Value 2
  EPWHeaderCountry,                       !- Feature Name 3
  String,                                 !- Feature Data Type 3
  USA,                                    !- Feature Value 3
  EPWHeaderDataSource,                    !- Feature Name 4
  String,                                 !- Feature Data Type 4
  TMY3,                                   !- Feature Value 4
  EPWHeaderStation,                       !- Feature Name 5
  String,                                 !- Feature Data Type 5
  722020,                                 !- Feature Value 5
  EPWHeaderLatitude,                      !- Feature Name 6
  Double,                                 !- Feature Data Type 6
  25.82,                                  !- Feature Value 6
  EPWHeaderLongitude,                     !- Feature Name 7
  Double,                                 !- Feature Data Type 7
  -80.299999999999997,                    !- Feature Value 7
  EPWHeaderTimezone,                      !- Feature Name 8
  Double,                                 !- Feature Data Type 8
  -5,                                     !- Feature Value 8
  EPWHeaderAltitude,                      !- Feature Name 9
  Double,                                 !- Feature Data Type 9
  36.089238845144358,                     !- Feature Value 9
  EPWHeaderLocalPressure,                 !- Feature Name 10
  Double,                                 !- Feature Data Type 10
  0.99867279752375582,                    !- Feature Value 10
  EPWHeaderRecordsPerHour,                !- Feature Name 11
  Double,                                 !- Feature Data Type 11
  0,                                      !- Feature Value 11
  EPWDataAnnualAvgDrybulb,                !- Feature Name 12
  Double,                                 !- Feature Data Type 12
  76.112431506849646,                     !- Feature Value 12
  EPWDataAnnualMinDrybulb,                !- Feature Name 13
  Double,                                 !- Feature Data Type 13
  41,                                     !- Feature Value 13
  EPWDataAnnualMaxDrybulb,                !- Feature Name 14
  Double,                                 !- Feature Data Type 14
  96.079999999999998,                     !- Feature Value 14
  EPWDataCDD50F,                          !- Feature Name 15
  Double,                                 !- Feature Data Type 15
  9531.0375000000095,                     !- Feature Value 15
  EPWDataCDD65F,                          !- Feature Name 16
  Double,                                 !- Feature Data Type 16
  4195.6950000000024,                     !- Feature Value 16
  EPWDataHDD50F,                          !- Feature Name 17
  Double,                                 !- Feature Data Type 17
  0,                                      !- Feature Value 17
  EPWDataHDD65F,                          !- Feature Name 18
  Double,                                 !- Feature Data Type 18
  139.65749999999994,                     !- Feature Value 18
  EPWDataAnnualAvgWindspeed,              !- Feature Name 19
  Double,                                 !- Feature Data Type 19
  4.1177511415521071,                     !- Feature Value 19
  EPWDataMonthlyAvgDrybulbs,              !- Feature Name 20
  String,                                 !- Feature Data Type 20
  66.95193548387095&#4469.5634821428572&#4470.82532258064509&#4475.40050000000002&#4479.54733870967738&#4481.83024999999998&#4482.63032258064513&#4482.35137096774197&#4481.48900000000006&#4479.41935483870965&#4474.45850000000013&#4468.52959677419348, !- Feature Value 20
  EPWDataGroundMonthlyTemps,              !- Feature Name 21
  String,                                 !- Feature Data Type 21
  73.49949161266244&#4472.30037030421141&#4472.20434036952582&#4472.77338470116848&#4475.05778059628489&#4477.33153480622997&#4479.3027581871666&#4480.55147971773891&#4480.65756547050086&#4479.64194038682461&#4477.72098435943627&#4475.51697966748856, !- Feature Value 21
  EPWDataWSF,                             !- Feature Name 22
  Double,                                 !- Feature Data Type 22
  0.40999999999999998,                    !- Feature Value 22
  EPWDataMonthlyAvgDailyHighDrybulbs,     !- Feature Name 23
  String,                                 !- Feature Data Type 23
  74.53225806451614&#4477.66214285714287&#4477.27290322580646&#4481.72800000000001&#4486.04064516129033&#4486.98400000000001&#4490.42451612903224&#4488.4967741935484&#4487.90800000000002&#4485.89548387096775&#4480.03600000000002&#4475.40903225806453, !- Feature Value 23
  EPWDataMonthlyAvgDailyLowDrybulbs,      !- Feature Name 24
  String,                                 !- Feature Data Type 24
  59.80709677419355&#4461.73857142857143&#4464.17935483870968&#4469.69800000000001&#4474.1606451612903&#4476.73&#4476.30322580645162&#4477.12774193548387&#4475.84199999999998&#4474.00387096774193&#4467.946&#4461.816129032258054, !- Feature Value 24
  EPWDesignHeatingDrybulb,                !- Feature Name 25
  Double,                                 !- Feature Data Type 25
  51.980000000000004,                     !- Feature Value 25
  EPWDesignHeatingWindspeed,              !- Feature Name 26
  Double,                                 !- Feature Data Type 26
  3.7461538461538462,                     !- Feature Value 26
  EPWDesignCoolingDrybulb,                !- Feature Name 27
  Double,                                 !- Feature Data Type 27
  89.960000000000008,                     !- Feature Value 27
  EPWDesignCoolingWetbulb,                !- Feature Name 28
  Double,                                 !- Feature Data Type 28
  77.005134139097905,                     !- Feature Value 28
  EPWDesignCoolingHumidityRatio,          !- Feature Name 29
  Double,                                 !- Feature Data Type 29
  0.016947724336000048,                   !- Feature Value 29
  EPWDesignCoolingWindspeed,              !- Feature Name 30
  Double,                                 !- Feature Data Type 30
  4.5874999999999959,                     !- Feature Value 30
  EPWDesignDailyTemperatureRange,         !- Feature Name 31
  Double,                                 !- Feature Data Type 31
  11.369032258064536,                     !- Feature Value 31
  EPWDesignDehumidDrybulb,                !- Feature Name 32
  Double,                                 !- Feature Data Type 32
  81.970769230769221,                     !- Feature Value 32
  EPWDesignDehumidHumidityRatio,          !- Feature Name 33
  Double,                                 !- Feature Data Type 33
  0.019380342324718424,                   !- Feature Value 33
  EPWDesignCoolingDirectNormal,           !- Feature Name 34
  Double,                                 !- Feature Data Type 34
  817,                                    !- Feature Value 34
  EPWDesignCoolingDiffuseHorizontal,      !- Feature Name 35
  Double,                                 !- Feature Data Type 35
  229;                                    !- Feature Value 35

OS:Site,
  {0d3f8d08-ee85-43ea-8335-0465e2e645cf}, !- Handle
  Miami Intl Ap_FL_USA,                   !- Name
  25.82,                                  !- Latitude {deg}
  -80.3,                                  !- Longitude {deg}
  -5,                                     !- Time Zone {hr}
  11,                                     !- Elevation {m}
  Suburbs;                                !- Terrain

OS:ClimateZones,
  {59fcc86a-8eed-466f-b816-176b6632a1ae}, !- Handle
  ,                                       !- Active Institution
  ,                                       !- Active Year
  ,                                       !- Climate Zone Institution Name 1
  ,                                       !- Climate Zone Document Name 1
  ,                                       !- Climate Zone Document Year 1
  ,                                       !- Climate Zone Value 1
  Building America,                       !- Climate Zone Institution Name 2
  ,                                       !- Climate Zone Document Name 2
  0,                                      !- Climate Zone Document Year 2
  Hot-Humid;                              !- Climate Zone Value 2

OS:Site:WaterMainsTemperature,
  {c44ef877-55e6-45ae-a71e-8bfa6d898ca7}, !- Handle
  Correlation,                            !- Calculation Method
  ,                                       !- Temperature Schedule Name
  24.5069063926942,                       !- Annual Average Outdoor Air Temperature {C}
  8.71021505376343;                       !- Maximum Difference In Monthly Average Outdoor Air Temperatures {deltaC}

OS:RunPeriodControl:DaylightSavingTime,
  {5a973503-4092-4357-9368-917dcc4c32e1}, !- Handle
  4/7,                                    !- Start Date
  10/26;                                  !- End Date

OS:Site:GroundTemperature:Deep,
  {c9aad6ef-c815-4d01-8420-67e90cb53adc}, !- Handle
  24.5069063926942,                       !- January Deep Ground Temperature {C}
  24.5069063926942,                       !- February Deep Ground Temperature {C}
  24.5069063926942,                       !- March Deep Ground Temperature {C}
  24.5069063926942,                       !- April Deep Ground Temperature {C}
  24.5069063926942,                       !- May Deep Ground Temperature {C}
  24.5069063926942,                       !- June Deep Ground Temperature {C}
  24.5069063926942,                       !- July Deep Ground Temperature {C}
  24.5069063926942,                       !- August Deep Ground Temperature {C}
  24.5069063926942,                       !- September Deep Ground Temperature {C}
  24.5069063926942,                       !- October Deep Ground Temperature {C}
  24.5069063926942,                       !- November Deep Ground Temperature {C}
  24.5069063926942;                       !- December Deep Ground Temperature {C}

OS:ThermalZone,
  {89dfe216-5755-46f3-97cf-775a9bf65d26}, !- Handle
  living zone,                            !- Name
  ,                                       !- Multiplier
  ,                                       !- Ceiling Height {m}
  ,                                       !- Volume {m3}
  ,                                       !- Floor Area {m2}
  ,                                       !- Zone Inside Convection Algorithm
  ,                                       !- Zone Outside Convection Algorithm
  ,                                       !- Zone Conditioning Equipment List Name
  {c71e3697-0736-47a0-930e-13208a16f98a}, !- Zone Air Inlet Port List
  {6e9aac73-a0dc-402d-96e2-d36ad7f6845e}, !- Zone Air Exhaust Port List
  {164f880a-7ad6-4084-bcb0-4948e1d2767e}, !- Zone Air Node Name
  {86a012f6-98c7-4df2-9fae-d8ba101af745}, !- Zone Return Air Port List
  ,                                       !- Primary Daylighting Control Name
  ,                                       !- Fraction of Zone Controlled by Primary Daylighting Control
  ,                                       !- Secondary Daylighting Control Name
  ,                                       !- Fraction of Zone Controlled by Secondary Daylighting Control
  ,                                       !- Illuminance Map Name
  ,                                       !- Group Rendering Name
  ,                                       !- Thermostat Name
  No,                                     !- Use Ideal Air Loads
  {41af472b-f2dd-4290-841d-cc21e86a46d4}; !- Humidistat Name

OS:Node,
  {87690029-4975-4592-87bf-ede63c02a28b}, !- Handle
  Node 1,                                 !- Name
  {164f880a-7ad6-4084-bcb0-4948e1d2767e}, !- Inlet Port
  ;                                       !- Outlet Port

OS:Connection,
  {164f880a-7ad6-4084-bcb0-4948e1d2767e}, !- Handle
  {fc78233d-7ea1-4ac5-bafe-5d516cb5e4c4}, !- Name
  {89dfe216-5755-46f3-97cf-775a9bf65d26}, !- Source Object
  11,                                     !- Outlet Port
  {87690029-4975-4592-87bf-ede63c02a28b}, !- Target Object
  2;                                      !- Inlet Port

OS:PortList,
  {c71e3697-0736-47a0-930e-13208a16f98a}, !- Handle
  {b5c543b4-adde-475f-a024-5809da4fb771}, !- Name
  {89dfe216-5755-46f3-97cf-775a9bf65d26}, !- HVAC Component
  {fd1768d1-750c-4547-b6a9-acbe90dbca07}; !- Port 1

OS:PortList,
  {6e9aac73-a0dc-402d-96e2-d36ad7f6845e}, !- Handle
  {f4656444-304f-4eea-ab60-430243191b63}, !- Name
  {89dfe216-5755-46f3-97cf-775a9bf65d26}, !- HVAC Component
  {d3c5c4ad-c837-41d5-bb09-33ffd0c7ae6f}; !- Port 1

OS:PortList,
  {86a012f6-98c7-4df2-9fae-d8ba101af745}, !- Handle
  {c003ec53-40fc-404f-9483-2d75cc0cb3ef}, !- Name
  {89dfe216-5755-46f3-97cf-775a9bf65d26}; !- HVAC Component

OS:Sizing:Zone,
  {523a58de-8fa6-445e-b86f-a93006bc669d}, !- Handle
  {89dfe216-5755-46f3-97cf-775a9bf65d26}, !- Zone or ZoneList Name
  SupplyAirTemperature,                   !- Zone Cooling Design Supply Air Temperature Input Method
  14,                                     !- Zone Cooling Design Supply Air Temperature {C}
  11.11,                                  !- Zone Cooling Design Supply Air Temperature Difference {deltaC}
  SupplyAirTemperature,                   !- Zone Heating Design Supply Air Temperature Input Method
  40,                                     !- Zone Heating Design Supply Air Temperature {C}
  11.11,                                  !- Zone Heating Design Supply Air Temperature Difference {deltaC}
  0.0085,                                 !- Zone Cooling Design Supply Air Humidity Ratio {kg-H2O/kg-air}
  0.008,                                  !- Zone Heating Design Supply Air Humidity Ratio {kg-H2O/kg-air}
  ,                                       !- Zone Heating Sizing Factor
  ,                                       !- Zone Cooling Sizing Factor
  DesignDay,                              !- Cooling Design Air Flow Method
  ,                                       !- Cooling Design Air Flow Rate {m3/s}
  ,                                       !- Cooling Minimum Air Flow per Zone Floor Area {m3/s-m2}
  ,                                       !- Cooling Minimum Air Flow {m3/s}
  ,                                       !- Cooling Minimum Air Flow Fraction
  DesignDay,                              !- Heating Design Air Flow Method
  ,                                       !- Heating Design Air Flow Rate {m3/s}
  ,                                       !- Heating Maximum Air Flow per Zone Floor Area {m3/s-m2}
  ,                                       !- Heating Maximum Air Flow {m3/s}
  ,                                       !- Heating Maximum Air Flow Fraction
  ,                                       !- Design Zone Air Distribution Effectiveness in Cooling Mode
  ,                                       !- Design Zone Air Distribution Effectiveness in Heating Mode
  No,                                     !- Account for Dedicated Outdoor Air System
  NeutralSupplyAir,                       !- Dedicated Outdoor Air System Control Strategy
  autosize,                               !- Dedicated Outdoor Air Low Setpoint Temperature for Design {C}
  autosize;                               !- Dedicated Outdoor Air High Setpoint Temperature for Design {C}

OS:ZoneHVAC:EquipmentList,
  {61d3d00b-e697-4e9a-8d7f-396fe4fdabc5}, !- Handle
  Zone HVAC Equipment List 1,             !- Name
  {89dfe216-5755-46f3-97cf-775a9bf65d26}, !- Thermal Zone
  SequentialLoad,                         !- Load Distribution Scheme
  {3650d4d9-2b7a-4aa3-a722-400c93890ac3}, !- Zone Equipment 1
  1,                                      !- Zone Equipment Cooling Sequence 1
  1,                                      !- Zone Equipment Heating or No-Load Sequence 1
  ,                                       !- Zone Equipment Sequential Cooling Fraction Schedule Name 1
  ;                                       !- Zone Equipment Sequential Heating Fraction Schedule Name 1

OS:ThermalZone,
  {24748313-10e5-4963-be75-ac5aa3a27542}, !- Handle
  garage zone,                            !- Name
  ,                                       !- Multiplier
  ,                                       !- Ceiling Height {m}
  ,                                       !- Volume {m3}
  ,                                       !- Floor Area {m2}
  ,                                       !- Zone Inside Convection Algorithm
  ,                                       !- Zone Outside Convection Algorithm
  ,                                       !- Zone Conditioning Equipment List Name
  {5cbe1cc1-6a65-470a-9996-78a28017c040}, !- Zone Air Inlet Port List
  {23d64738-6d79-47aa-b824-aa553764b481}, !- Zone Air Exhaust Port List
  {a0a661cc-142f-4664-9e4a-5a457eb7f235}, !- Zone Air Node Name
  {7bd48707-35e5-4ed9-a425-8f16eff92d9f}, !- Zone Return Air Port List
  ,                                       !- Primary Daylighting Control Name
  ,                                       !- Fraction of Zone Controlled by Primary Daylighting Control
  ,                                       !- Secondary Daylighting Control Name
  ,                                       !- Fraction of Zone Controlled by Secondary Daylighting Control
  ,                                       !- Illuminance Map Name
  ,                                       !- Group Rendering Name
  ,                                       !- Thermostat Name
  No;                                     !- Use Ideal Air Loads

OS:Node,
  {4273dcd0-452d-46ea-aaf5-78b062d0a6c4}, !- Handle
  Node 2,                                 !- Name
  {a0a661cc-142f-4664-9e4a-5a457eb7f235}, !- Inlet Port
  ;                                       !- Outlet Port

OS:Connection,
  {a0a661cc-142f-4664-9e4a-5a457eb7f235}, !- Handle
  {ae3438e6-0b50-4d47-a1c2-379c05c44ca4}, !- Name
  {24748313-10e5-4963-be75-ac5aa3a27542}, !- Source Object
  11,                                     !- Outlet Port
  {4273dcd0-452d-46ea-aaf5-78b062d0a6c4}, !- Target Object
  2;                                      !- Inlet Port

OS:PortList,
  {5cbe1cc1-6a65-470a-9996-78a28017c040}, !- Handle
  {af15398e-f8f0-448c-ad2a-b0cf2af34b1e}, !- Name
  {24748313-10e5-4963-be75-ac5aa3a27542}; !- HVAC Component

OS:PortList,
  {23d64738-6d79-47aa-b824-aa553764b481}, !- Handle
  {7b219bc4-cf54-4c36-8a0b-6cc5c64dd7c4}, !- Name
  {24748313-10e5-4963-be75-ac5aa3a27542}; !- HVAC Component

OS:PortList,
  {7bd48707-35e5-4ed9-a425-8f16eff92d9f}, !- Handle
  {0cd44086-c871-4dcd-89f1-340fcde138be}, !- Name
  {24748313-10e5-4963-be75-ac5aa3a27542}; !- HVAC Component

OS:Sizing:Zone,
  {e2e4bc38-c579-4a02-bf6f-58a274ed00f2}, !- Handle
  {24748313-10e5-4963-be75-ac5aa3a27542}, !- Zone or ZoneList Name
  SupplyAirTemperature,                   !- Zone Cooling Design Supply Air Temperature Input Method
  14,                                     !- Zone Cooling Design Supply Air Temperature {C}
  11.11,                                  !- Zone Cooling Design Supply Air Temperature Difference {deltaC}
  SupplyAirTemperature,                   !- Zone Heating Design Supply Air Temperature Input Method
  40,                                     !- Zone Heating Design Supply Air Temperature {C}
  11.11,                                  !- Zone Heating Design Supply Air Temperature Difference {deltaC}
  0.0085,                                 !- Zone Cooling Design Supply Air Humidity Ratio {kg-H2O/kg-air}
  0.008,                                  !- Zone Heating Design Supply Air Humidity Ratio {kg-H2O/kg-air}
  ,                                       !- Zone Heating Sizing Factor
  ,                                       !- Zone Cooling Sizing Factor
  DesignDay,                              !- Cooling Design Air Flow Method
  ,                                       !- Cooling Design Air Flow Rate {m3/s}
  ,                                       !- Cooling Minimum Air Flow per Zone Floor Area {m3/s-m2}
  ,                                       !- Cooling Minimum Air Flow {m3/s}
  ,                                       !- Cooling Minimum Air Flow Fraction
  DesignDay,                              !- Heating Design Air Flow Method
  ,                                       !- Heating Design Air Flow Rate {m3/s}
  ,                                       !- Heating Maximum Air Flow per Zone Floor Area {m3/s-m2}
  ,                                       !- Heating Maximum Air Flow {m3/s}
  ,                                       !- Heating Maximum Air Flow Fraction
  ,                                       !- Design Zone Air Distribution Effectiveness in Cooling Mode
  ,                                       !- Design Zone Air Distribution Effectiveness in Heating Mode
  No,                                     !- Account for Dedicated Outdoor Air System
  NeutralSupplyAir,                       !- Dedicated Outdoor Air System Control Strategy
  autosize,                               !- Dedicated Outdoor Air Low Setpoint Temperature for Design {C}
  autosize;                               !- Dedicated Outdoor Air High Setpoint Temperature for Design {C}

OS:ZoneHVAC:EquipmentList,
  {120dabf8-050e-4df8-a089-47f4289cd42a}, !- Handle
  Zone HVAC Equipment List 2,             !- Name
  {24748313-10e5-4963-be75-ac5aa3a27542}; !- Thermal Zone

OS:Space,
  {d0dff247-6c98-4de5-82e7-a09ae5792eb8}, !- Handle
  garage space,                           !- Name
  {70103c7a-295f-4d88-85c3-12e04bdcc3f0}, !- Space Type Name
  ,                                       !- Default Construction Set Name
  ,                                       !- Default Schedule Set Name
  -0,                                     !- Direction of Relative North {deg}
  0,                                      !- X Origin {m}
  0,                                      !- Y Origin {m}
  0,                                      !- Z Origin {m}
  ,                                       !- Building Story Name
  {24748313-10e5-4963-be75-ac5aa3a27542}; !- Thermal Zone Name

OS:Surface,
  {95bd6b7f-bb41-48a9-b2aa-2e9defcbbda1}, !- Handle
  Surface 1,                              !- Name
  Floor,                                  !- Surface Type
  {bbe6ddab-abbc-454a-a8b8-6180e34c354e}, !- Construction Name
  {d0dff247-6c98-4de5-82e7-a09ae5792eb8}, !- Space Name
  Foundation,                             !- Outside Boundary Condition
  {cad935b6-1255-4617-ab41-9c418739e105}, !- Outside Boundary Condition Object
  NoSun,                                  !- Sun Exposure
  NoWind,                                 !- Wind Exposure
  ,                                       !- View Factor to Ground
  ,                                       !- Number of Vertices
  8.91701625975123, -3.048, 0,            !- X,Y,Z Vertex 1 {m}
  8.91701625975123, 3.048, 0,             !- X,Y,Z Vertex 2 {m}
  12.5746162597512, 3.048, 0,             !- X,Y,Z Vertex 3 {m}
  12.5746162597512, -3.048, 0;            !- X,Y,Z Vertex 4 {m}

OS:Surface,
  {363368d3-bcd1-43db-b074-e72c15055f4a}, !- Handle
  Surface 2,                              !- Name
  Wall,                                   !- Surface Type
  {ece1dd71-9c32-4628-a02b-a4fdee047121}, !- Construction Name
  {d0dff247-6c98-4de5-82e7-a09ae5792eb8}, !- Space Name
  Surface,                                !- Outside Boundary Condition
  {dc1d2998-32b1-485f-9f31-6eaab7b4b455}, !- Outside Boundary Condition Object
  NoSun,                                  !- Sun Exposure
  NoWind,                                 !- Wind Exposure
  ,                                       !- View Factor to Ground
  ,                                       !- Number of Vertices
  8.91701625975123, 3.048, 2.4384,        !- X,Y,Z Vertex 1 {m}
  8.91701625975123, 3.048, 0,             !- X,Y,Z Vertex 2 {m}
  8.91701625975123, 0, 0,                 !- X,Y,Z Vertex 3 {m}
  8.91701625975123, 0, 2.4384;            !- X,Y,Z Vertex 4 {m}

OS:Surface,
  {ffb9b787-6d72-4dca-a579-1a5beb01654f}, !- Handle
  Surface 3,                              !- Name
  Wall,                                   !- Surface Type
  {ece1dd71-9c32-4628-a02b-a4fdee047121}, !- Construction Name
  {d0dff247-6c98-4de5-82e7-a09ae5792eb8}, !- Space Name
  Surface,                                !- Outside Boundary Condition
  {6da33c13-8da6-4dcf-9d9c-e4d6b45cd9d1}, !- Outside Boundary Condition Object
  NoSun,                                  !- Sun Exposure
  NoWind,                                 !- Wind Exposure
  ,                                       !- View Factor to Ground
  ,                                       !- Number of Vertices
  12.5746162597512, 3.048, 2.4384,        !- X,Y,Z Vertex 1 {m}
  12.5746162597512, 3.048, 0,             !- X,Y,Z Vertex 2 {m}
  8.91701625975123, 3.048, 0,             !- X,Y,Z Vertex 3 {m}
  8.91701625975123, 3.048, 2.4384;        !- X,Y,Z Vertex 4 {m}

OS:Surface,
  {2ccb90d6-00fb-4e6f-9c5e-30efe2bd08ef}, !- Handle
  Surface 4,                              !- Name
  Wall,                                   !- Surface Type
  {2b35ecd0-8b96-4f5c-b2b8-0ce15bda4f3c}, !- Construction Name
  {d0dff247-6c98-4de5-82e7-a09ae5792eb8}, !- Space Name
  Outdoors,                               !- Outside Boundary Condition
  ,                                       !- Outside Boundary Condition Object
  SunExposed,                             !- Sun Exposure
  WindExposed,                            !- Wind Exposure
  ,                                       !- View Factor to Ground
  ,                                       !- Number of Vertices
  12.5746162597512, -3.048, 2.4384,       !- X,Y,Z Vertex 1 {m}
  12.5746162597512, -3.048, 0,            !- X,Y,Z Vertex 2 {m}
  12.5746162597512, 3.048, 0,             !- X,Y,Z Vertex 3 {m}
  12.5746162597512, 3.048, 2.4384;        !- X,Y,Z Vertex 4 {m}

OS:Surface,
  {412ccc7f-fef5-41d3-b48b-0cb145d27f6b}, !- Handle
  Surface 5,                              !- Name
  Wall,                                   !- Surface Type
  {2b35ecd0-8b96-4f5c-b2b8-0ce15bda4f3c}, !- Construction Name
  {d0dff247-6c98-4de5-82e7-a09ae5792eb8}, !- Space Name
  Outdoors,                               !- Outside Boundary Condition