!- NOTE: Auto-generated from /test/osw_files/SFD_2000sqft_2story_SL_FA_HipRoof.osw

OS:Version,
  {c411a4a1-13e4-4471-881e-7f5c77fea023}, !- Handle
  2.8.0;                                  !- Version Identifier

OS:SimulationControl,
  {489b8045-8c68-4cec-b93c-dbc80d8ab593}, !- Handle
  ,                                       !- Do Zone Sizing Calculation
  ,                                       !- Do System Sizing Calculation
  ,                                       !- Do Plant Sizing Calculation
  No;                                     !- Run Simulation for Sizing Periods

OS:Timestep,
  {ecd291aa-6c7c-4001-81e2-815794e870cc}, !- Handle
  6;                                      !- Number of Timesteps per Hour

OS:ShadowCalculation,
  {3e7730e2-7dda-42be-86f4-9e6485c4485f}, !- Handle
  20,                                     !- Calculation Frequency
  200;                                    !- Maximum Figures in Shadow Overlap Calculations

OS:SurfaceConvectionAlgorithm:Outside,
  {bf9b823e-a3b3-41fa-8e30-7f51dc985558}, !- Handle
  DOE-2;                                  !- Algorithm

OS:SurfaceConvectionAlgorithm:Inside,
  {2a0ec557-2ad2-483c-bf17-20e1d42e4fbc}, !- Handle
  TARP;                                   !- Algorithm

OS:ZoneCapacitanceMultiplier:ResearchSpecial,
  {c00a2d0c-0e89-45d4-a579-ce540e4bd23d}, !- Handle
  ,                                       !- Temperature Capacity Multiplier
  15,                                     !- Humidity Capacity Multiplier
  ;                                       !- Carbon Dioxide Capacity Multiplier

OS:RunPeriod,
  {752fb9b2-e97b-48cf-936c-10a6f544a2b6}, !- Handle
  Run Period 1,                           !- Name
  1,                                      !- Begin Month
  1,                                      !- Begin Day of Month
  12,                                     !- End Month
  31,                                     !- End Day of Month
  ,                                       !- Use Weather File Holidays and Special Days
  ,                                       !- Use Weather File Daylight Saving Period
  ,                                       !- Apply Weekend Holiday Rule
  ,                                       !- Use Weather File Rain Indicators
  ,                                       !- Use Weather File Snow Indicators
  ;                                       !- Number of Times Runperiod to be Repeated

OS:ThermalZone,
  {41a7d054-b7bd-4027-bd2b-d5752b062f31}, !- Handle
  living zone,                            !- Name
  ,                                       !- Multiplier
  ,                                       !- Ceiling Height {m}
  ,                                       !- Volume {m3}
  ,                                       !- Floor Area {m2}
  ,                                       !- Zone Inside Convection Algorithm
  ,                                       !- Zone Outside Convection Algorithm
  ,                                       !- Zone Conditioning Equipment List Name
  {c790c6f1-66f8-4ac5-9611-358fac9f2089}, !- Zone Air Inlet Port List
  {fc3d640c-9d0f-4ea6-9f2c-3798b982e630}, !- Zone Air Exhaust Port List
  {38e676f9-7ba8-47a5-ad1f-ca9cbccb3855}, !- Zone Air Node Name
  {2bfc90cf-799b-4397-a152-4ff1f39544ca}, !- Zone Return Air Port List
  ,                                       !- Primary Daylighting Control Name
  ,                                       !- Fraction of Zone Controlled by Primary Daylighting Control
  ,                                       !- Secondary Daylighting Control Name
  ,                                       !- Fraction of Zone Controlled by Secondary Daylighting Control
  ,                                       !- Illuminance Map Name
  ,                                       !- Group Rendering Name
  ,                                       !- Thermostat Name
  No;                                     !- Use Ideal Air Loads

OS:Node,
  {ca6497c1-14b0-4b01-9543-eb479360a37a}, !- Handle
  Node 1,                                 !- Name
  {38e676f9-7ba8-47a5-ad1f-ca9cbccb3855}, !- Inlet Port
  ;                                       !- Outlet Port

OS:Connection,
  {38e676f9-7ba8-47a5-ad1f-ca9cbccb3855}, !- Handle
  {db2324c0-4044-45cd-b7f7-8d3bec56ee15}, !- Name
  {41a7d054-b7bd-4027-bd2b-d5752b062f31}, !- Source Object
  11,                                     !- Outlet Port
  {ca6497c1-14b0-4b01-9543-eb479360a37a}, !- Target Object
  2;                                      !- Inlet Port

OS:PortList,
  {c790c6f1-66f8-4ac5-9611-358fac9f2089}, !- Handle
  {4966c16b-b492-44b1-b6d6-81face54f546}, !- Name
  {41a7d054-b7bd-4027-bd2b-d5752b062f31}; !- HVAC Component

OS:PortList,
  {fc3d640c-9d0f-4ea6-9f2c-3798b982e630}, !- Handle
  {9a073d26-56e9-419d-ba7f-6c0747a1b7ac}, !- Name
  {41a7d054-b7bd-4027-bd2b-d5752b062f31}; !- HVAC Component

OS:PortList,
  {2bfc90cf-799b-4397-a152-4ff1f39544ca}, !- Handle
  {cf286911-9794-493d-8b94-5cf1421cc1ac}, !- Name
  {41a7d054-b7bd-4027-bd2b-d5752b062f31}; !- HVAC Component

OS:Sizing:Zone,
  {b293d571-9d04-4a0a-bb9f-a019c2b7e9cc}, !- Handle
  {41a7d054-b7bd-4027-bd2b-d5752b062f31}, !- Zone or ZoneList Name
  SupplyAirTemperature,                   !- Zone Cooling Design Supply Air Temperature Input Method
  14,                                     !- Zone Cooling Design Supply Air Temperature {C}
  11.11,                                  !- Zone Cooling Design Supply Air Temperature Difference {deltaC}
  SupplyAirTemperature,                   !- Zone Heating Design Supply Air Temperature Input Method
  40,                                     !- Zone Heating Design Supply Air Temperature {C}
  11.11,                                  !- Zone Heating Design Supply Air Temperature Difference {deltaC}
  0.0085,                                 !- Zone Cooling Design Supply Air Humidity Ratio {kg-H2O/kg-air}
  0.008,                                  !- Zone Heating Design Supply Air Humidity Ratio {kg-H2O/kg-air}
  ,                                       !- Zone Heating Sizing Factor
  ,                                       !- Zone Cooling Sizing Factor
  DesignDay,                              !- Cooling Design Air Flow Method
  ,                                       !- Cooling Design Air Flow Rate {m3/s}
  ,                                       !- Cooling Minimum Air Flow per Zone Floor Area {m3/s-m2}
  ,                                       !- Cooling Minimum Air Flow {m3/s}
  ,                                       !- Cooling Minimum Air Flow Fraction
  DesignDay,                              !- Heating Design Air Flow Method
  ,                                       !- Heating Design Air Flow Rate {m3/s}
  ,                                       !- Heating Maximum Air Flow per Zone Floor Area {m3/s-m2}
  ,                                       !- Heating Maximum Air Flow {m3/s}
  ,                                       !- Heating Maximum Air Flow Fraction
  ,                                       !- Design Zone Air Distribution Effectiveness in Cooling Mode
  ,                                       !- Design Zone Air Distribution Effectiveness in Heating Mode
  No,                                     !- Account for Dedicated Outdoor Air System
  NeutralSupplyAir,                       !- Dedicated Outdoor Air System Control Strategy
  autosize,                               !- Dedicated Outdoor Air Low Setpoint Temperature for Design {C}
  autosize;                               !- Dedicated Outdoor Air High Setpoint Temperature for Design {C}

OS:ZoneHVAC:EquipmentList,
  {0bd4ec7f-68d0-41ee-aeaa-26dfd45de08b}, !- Handle
  Zone HVAC Equipment List 1,             !- Name
  {41a7d054-b7bd-4027-bd2b-d5752b062f31}; !- Thermal Zone

OS:Space,
  {f3d0ffef-658a-4053-8c01-7976c1e66ea8}, !- Handle
  living space,                           !- Name
  {bdbb6973-5089-4ac5-8e5d-2cbd97d5dd78}, !- Space Type Name
  ,                                       !- Default Construction Set Name
  ,                                       !- Default Schedule Set Name
  -0,                                     !- Direction of Relative North {deg}
  0,                                      !- X Origin {m}
  0,                                      !- Y Origin {m}
  0,                                      !- Z Origin {m}
  ,                                       !- Building Story Name
  {41a7d054-b7bd-4027-bd2b-d5752b062f31}, !- Thermal Zone Name
  ,                                       !- Part of Total Floor Area
  ,                                       !- Design Specification Outdoor Air Object Name
  {f9e73481-988c-43c8-a1c3-ab713249f9dd}; !- Building Unit Name

OS:Surface,
  {16f7af64-09cf-4efb-b6dc-55cd74a95e8d}, !- Handle
  Surface 1,                              !- Name
  Floor,                                  !- Surface Type
  ,                                       !- Construction Name
  {f3d0ffef-658a-4053-8c01-7976c1e66ea8}, !- Space Name
  Foundation,                             !- Outside Boundary Condition
  ,                                       !- Outside Boundary Condition Object
  NoSun,                                  !- Sun Exposure
  NoWind,                                 !- Wind Exposure
  ,                                       !- View Factor to Ground
  ,                                       !- Number of Vertices
  0, 0, 0,                                !- X,Y,Z Vertex 1 {m}
  0, 5.56486118425249, 0,                 !- X,Y,Z Vertex 2 {m}
  11.129722368505, 5.56486118425249, 0,   !- X,Y,Z Vertex 3 {m}
  11.129722368505, 0, 0;                  !- X,Y,Z Vertex 4 {m}

OS:Surface,
  {11464e8f-4f2d-490c-9bb1-31ffdde10bc0}, !- Handle
  Surface 2,                              !- Name
  Wall,                                   !- Surface Type
  ,                                       !- Construction Name
  {f3d0ffef-658a-4053-8c01-7976c1e66ea8}, !- Space Name
  Outdoors,                               !- Outside Boundary Condition
  ,                                       !- Outside Boundary Condition Object
  SunExposed,                             !- Sun Exposure
  WindExposed,                            !- Wind Exposure
  ,                                       !- View Factor to Ground
  ,                                       !- Number of Vertices
  0, 5.56486118425249, 2.4384,            !- X,Y,Z Vertex 1 {m}
  0, 5.56486118425249, 0,                 !- X,Y,Z Vertex 2 {m}
  0, 0, 0,                                !- X,Y,Z Vertex 3 {m}
  0, 0, 2.4384;                           !- X,Y,Z Vertex 4 {m}

OS:Surface,
  {a48d2f0e-bde7-499e-9edd-ddfee31c4fee}, !- Handle
  Surface 3,                              !- Name
  Wall,                                   !- Surface Type
  ,                                       !- Construction Name
  {f3d0ffef-658a-4053-8c01-7976c1e66ea8}, !- Space Name
  Outdoors,                               !- Outside Boundary Condition
  ,                                       !- Outside Boundary Condition Object
  SunExposed,                             !- Sun Exposure
  WindExposed,                            !- Wind Exposure
  ,                                       !- View Factor to Ground
  ,                                       !- Number of Vertices
  11.129722368505, 5.56486118425249, 2.4384, !- X,Y,Z Vertex 1 {m}
  11.129722368505, 5.56486118425249, 0,   !- X,Y,Z Vertex 2 {m}
  0, 5.56486118425249, 0,                 !- X,Y,Z Vertex 3 {m}
  0, 5.56486118425249, 2.4384;            !- X,Y,Z Vertex 4 {m}

OS:Surface,
  {fbf098f1-4ef7-4083-90b5-54f8ea60734d}, !- Handle
  Surface 4,                              !- Name
  Wall,                                   !- Surface Type
  ,                                       !- Construction Name
  {f3d0ffef-658a-4053-8c01-7976c1e66ea8}, !- Space Name
  Outdoors,                               !- Outside Boundary Condition
  ,                                       !- Outside Boundary Condition Object
  SunExposed,                             !- Sun Exposure
  WindExposed,                            !- Wind Exposure
  ,                                       !- View Factor to Ground
  ,                                       !- Number of Vertices
  11.129722368505, 0, 2.4384,             !- X,Y,Z Vertex 1 {m}
  11.129722368505, 0, 0,                  !- X,Y,Z Vertex 2 {m}
  11.129722368505, 5.56486118425249, 0,   !- X,Y,Z Vertex 3 {m}
  11.129722368505, 5.56486118425249, 2.4384; !- X,Y,Z Vertex 4 {m}

OS:Surface,
  {144cce19-cfb2-4885-9445-62252ab27f61}, !- Handle
  Surface 5,                              !- Name
  Wall,                                   !- Surface Type
  ,                                       !- Construction Name
  {f3d0ffef-658a-4053-8c01-7976c1e66ea8}, !- Space Name
  Outdoors,                               !- Outside Boundary Condition
  ,                                       !- Outside Boundary Condition Object
  SunExposed,                             !- Sun Exposure
  WindExposed,                            !- Wind Exposure
  ,                                       !- View Factor to Ground
  ,                                       !- Number of Vertices
  0, 0, 2.4384,                           !- X,Y,Z Vertex 1 {m}
  0, 0, 0,                                !- X,Y,Z Vertex 2 {m}
  11.129722368505, 0, 0,                  !- X,Y,Z Vertex 3 {m}
  11.129722368505, 0, 2.4384;             !- X,Y,Z Vertex 4 {m}

OS:Surface,
  {f7ded45f-ea59-4064-b1d3-99856d59d5a7}, !- Handle
  Surface 6,                              !- Name
  RoofCeiling,                            !- Surface Type
  ,                                       !- Construction Name
  {f3d0ffef-658a-4053-8c01-7976c1e66ea8}, !- Space Name
  Surface,                                !- Outside Boundary Condition
  {facd2fb9-3835-4a6a-8556-172b1f370937}, !- Outside Boundary Condition Object
  NoSun,                                  !- Sun Exposure
  NoWind,                                 !- Wind Exposure
  ,                                       !- View Factor to Ground
  ,                                       !- Number of Vertices
  11.129722368505, 0, 2.4384,             !- X,Y,Z Vertex 1 {m}
  11.129722368505, 5.56486118425249, 2.4384, !- X,Y,Z Vertex 2 {m}
  0, 5.56486118425249, 2.4384,            !- X,Y,Z Vertex 3 {m}
  0, 0, 2.4384;                           !- X,Y,Z Vertex 4 {m}

OS:SpaceType,
  {bdbb6973-5089-4ac5-8e5d-2cbd97d5dd78}, !- Handle
  Space Type 1,                           !- Name
  ,                                       !- Default Construction Set Name
  ,                                       !- Default Schedule Set Name
  ,                                       !- Group Rendering Name
  ,                                       !- Design Specification Outdoor Air Object Name
  ,                                       !- Standards Template
  ,                                       !- Standards Building Type
  living;                                 !- Standards Space Type

OS:Space,
  {c3f6bada-c861-4221-8f1a-2ac5b03cbce9}, !- Handle
  living space|story 2,                   !- Name
  {bdbb6973-5089-4ac5-8e5d-2cbd97d5dd78}, !- Space Type Name
  ,                                       !- Default Construction Set Name
  ,                                       !- Default Schedule Set Name
  -0,                                     !- Direction of Relative North {deg}
  0,                                      !- X Origin {m}
  0,                                      !- Y Origin {m}
  2.4384,                                 !- Z Origin {m}
  ,                                       !- Building Story Name
  {41a7d054-b7bd-4027-bd2b-d5752b062f31}, !- Thermal Zone Name
  ,                                       !- Part of Total Floor Area
  ,                                       !- Design Specification Outdoor Air Object Name
  {f9e73481-988c-43c8-a1c3-ab713249f9dd}; !- Building Unit Name

OS:Surface,
  {facd2fb9-3835-4a6a-8556-172b1f370937}, !- Handle
  Surface 7,                              !- Name
  Floor,                                  !- Surface Type
  ,                                       !- Construction Name
  {c3f6bada-c861-4221-8f1a-2ac5b03cbce9}, !- Space Name
  Surface,                                !- Outside Boundary Condition
  {f7ded45f-ea59-4064-b1d3-99856d59d5a7}, !- Outside Boundary Condition Object
  NoSun,                                  !- Sun Exposure
  NoWind,                                 !- Wind Exposure
  ,                                       !- View Factor to Ground
  ,                                       !- Number of Vertices
  0, 0, 0,                                !- X,Y,Z Vertex 1 {m}
  0, 5.56486118425249, 0,                 !- X,Y,Z Vertex 2 {m}
  11.129722368505, 5.56486118425249, 0,   !- X,Y,Z Vertex 3 {m}
  11.129722368505, 0, 0;                  !- X,Y,Z Vertex 4 {m}

OS:Surface,
  {497a6b84-4c8c-4412-90f5-495b60e206f9}, !- Handle
  Surface 8,                              !- Name
  Wall,                                   !- Surface Type
  ,                                       !- Construction Name
  {c3f6bada-c861-4221-8f1a-2ac5b03cbce9}, !- Space Name
  Outdoors,                               !- Outside Boundary Condition
  ,                                       !- Outside Boundary Condition Object
  SunExposed,                             !- Sun Exposure
  WindExposed,                            !- Wind Exposure
  ,                                       !- View Factor to Ground
  ,                                       !- Number of Vertices
  0, 5.56486118425249, 2.4384,            !- X,Y,Z Vertex 1 {m}
  0, 5.56486118425249, 0,                 !- X,Y,Z Vertex 2 {m}
  0, 0, 0,                                !- X,Y,Z Vertex 3 {m}
  0, 0, 2.4384;                           !- X,Y,Z Vertex 4 {m}

OS:Surface,
  {f1d0948c-3b48-4b0b-bc3c-1c4307da9400}, !- Handle
  Surface 9,                              !- Name
  Wall,                                   !- Surface Type
  ,                                       !- Construction Name
  {c3f6bada-c861-4221-8f1a-2ac5b03cbce9}, !- Space Name
  Outdoors,                               !- Outside Boundary Condition
  ,                                       !- Outside Boundary Condition Object
  SunExposed,                             !- Sun Exposure
  WindExposed,                            !- Wind Exposure
  ,                                       !- View Factor to Ground
  ,                                       !- Number of Vertices
  11.129722368505, 5.56486118425249, 2.4384, !- X,Y,Z Vertex 1 {m}
  11.129722368505, 5.56486118425249, 0,   !- X,Y,Z Vertex 2 {m}
  0, 5.56486118425249, 0,                 !- X,Y,Z Vertex 3 {m}
  0, 5.56486118425249, 2.4384;            !- X,Y,Z Vertex 4 {m}

OS:Surface,
  {591e53c7-d165-4efb-96a6-7779333330bb}, !- Handle
  Surface 10,                             !- Name
  Wall,                                   !- Surface Type
  ,                                       !- Construction Name
  {c3f6bada-c861-4221-8f1a-2ac5b03cbce9}, !- Space Name
  Outdoors,                               !- Outside Boundary Condition
  ,                                       !- Outside Boundary Condition Object
  SunExposed,                             !- Sun Exposure
  WindExposed,                            !- Wind Exposure
  ,                                       !- View Factor to Ground
  ,                                       !- Number of Vertices
  11.129722368505, 0, 2.4384,             !- X,Y,Z Vertex 1 {m}
  11.129722368505, 0, 0,                  !- X,Y,Z Vertex 2 {m}
  11.129722368505, 5.56486118425249, 0,   !- X,Y,Z Vertex 3 {m}
  11.129722368505, 5.56486118425249, 2.4384; !- X,Y,Z Vertex 4 {m}

OS:Surface,
  {f224e8b5-00a0-409b-a1e2-b07a16737254}, !- Handle
  Surface 11,                             !- Name
  Wall,                                   !- Surface Type
  ,                                       !- Construction Name
  {c3f6bada-c861-4221-8f1a-2ac5b03cbce9}, !- Space Name
  Outdoors,                               !- Outside Boundary Condition
  ,                                       !- Outside Boundary Condition Object
  SunExposed,                             !- Sun Exposure
  WindExposed,                            !- Wind Exposure
  ,                                       !- View Factor to Ground
  ,                                       !- Number of Vertices
  0, 0, 2.4384,                           !- X,Y,Z Vertex 1 {m}
  0, 0, 0,                                !- X,Y,Z Vertex 2 {m}
  11.129722368505, 0, 0,                  !- X,Y,Z Vertex 3 {m}
  11.129722368505, 0, 2.4384;             !- X,Y,Z Vertex 4 {m}

OS:Surface,
  {5a5992a7-7def-474e-b75a-90e0e57579cd}, !- Handle
  Surface 12,                             !- Name
  RoofCeiling,                            !- Surface Type
  ,                                       !- Construction Name
  {c3f6bada-c861-4221-8f1a-2ac5b03cbce9}, !- Space Name
  Surface,                                !- Outside Boundary Condition
  {5e583f94-9e01-4c81-8c4c-6132c8a867cd}, !- Outside Boundary Condition Object
  NoSun,                                  !- Sun Exposure
  NoWind,                                 !- Wind Exposure
  ,                                       !- View Factor to Ground
  ,                                       !- Number of Vertices
  11.129722368505, 0, 2.4384,             !- X,Y,Z Vertex 1 {m}
  11.129722368505, 5.56486118425249, 2.4384, !- X,Y,Z Vertex 2 {m}
  0, 5.56486118425249, 2.4384,            !- X,Y,Z Vertex 3 {m}
  0, 0, 2.4384;                           !- X,Y,Z Vertex 4 {m}

OS:Surface,
  {5e583f94-9e01-4c81-8c4c-6132c8a867cd}, !- Handle
  Surface 13,                             !- Name
  Floor,                                  !- Surface Type
  ,                                       !- Construction Name
  {6af800ed-16ca-4358-990e-ed573e3400ad}, !- Space Name
  Surface,                                !- Outside Boundary Condition
  {5a5992a7-7def-474e-b75a-90e0e57579cd}, !- Outside Boundary Condition Object
  NoSun,                                  !- Sun Exposure
  NoWind,                                 !- Wind Exposure
  ,                                       !- View Factor to Ground
  ,                                       !- Number of Vertices
  0, 5.56486118425249, 0,                 !- X,Y,Z Vertex 1 {m}
  11.129722368505, 5.56486118425249, 0,   !- X,Y,Z Vertex 2 {m}
  11.129722368505, 0, 0,                  !- X,Y,Z Vertex 3 {m}
  0, 0, 0;                                !- X,Y,Z Vertex 4 {m}

OS:Surface,
  {998df649-37db-41a4-9285-dcd3fd6fa1e2}, !- Handle
  Surface 14,                             !- Name
  RoofCeiling,                            !- Surface Type
  ,                                       !- Construction Name
  {6af800ed-16ca-4358-990e-ed573e3400ad}, !- Space Name
  Outdoors,                               !- Outside Boundary Condition
  ,                                       !- Outside Boundary Condition Object
  SunExposed,                             !- Sun Exposure
  WindExposed,                            !- Wind Exposure
  ,                                       !- View Factor to Ground
  ,                                       !- Number of Vertices
  8.34729177637873, 2.78243059212624, 1.69601529606312, !- X,Y,Z Vertex 1 {m}
  2.78243059212624, 2.78243059212624, 1.69601529606312, !- X,Y,Z Vertex 2 {m}
  0, 0, 0.3048,                           !- X,Y,Z Vertex 3 {m}
  11.129722368505, 0, 0.3048;             !- X,Y,Z Vertex 4 {m}

OS:Surface,
  {8bfc3717-666d-4e18-9a5d-bacc7d26ced3}, !- Handle
  Surface 15,                             !- Name
  RoofCeiling,                            !- Surface Type
  ,                                       !- Construction Name
  {6af800ed-16ca-4358-990e-ed573e3400ad}, !- Space Name
  Outdoors,                               !- Outside Boundary Condition
  ,                                       !- Outside Boundary Condition Object
  SunExposed,                             !- Sun Exposure
  WindExposed,                            !- Wind Exposure
  ,                                       !- View Factor to Ground
  ,                                       !- Number of Vertices
  2.78243059212624, 2.78243059212624, 1.69601529606312, !- X,Y,Z Vertex 1 {m}
  8.34729177637873, 2.78243059212624, 1.69601529606312, !- X,Y,Z Vertex 2 {m}
  11.129722368505, 5.56486118425249, 0.304799999999999, !- X,Y,Z Vertex 3 {m}
  0, 5.56486118425249, 0.304799999999999; !- X,Y,Z Vertex 4 {m}

OS:Surface,
  {e80da8b2-cc3b-46c3-8b7a-72c7cceaef82}, !- Handle
  Surface 16,                             !- Name
  RoofCeiling,                            !- Surface Type
  ,                                       !- Construction Name
  {6af800ed-16ca-4358-990e-ed573e3400ad}, !- Space Name
  Outdoors,                               !- Outside Boundary Condition
  ,                                       !- Outside Boundary Condition Object
  SunExposed,                             !- Sun Exposure
  WindExposed,                            !- Wind Exposure
  ,                                       !- View Factor to Ground
  ,                                       !- Number of Vertices
  2.78243059212624, 2.78243059212624, 1.69601529606312, !- X,Y,Z Vertex 1 {m}
  0, 5.56486118425249, 0.3048,            !- X,Y,Z Vertex 2 {m}
  0, 0, 0.3048;                           !- X,Y,Z Vertex 3 {m}

OS:Surface,
  {3919d9d2-b3ce-42e9-bd3a-b3497d47fb17}, !- Handle
  Surface 17,                             !- Name
  RoofCeiling,                            !- Surface Type
  ,                                       !- Construction Name
  {6af800ed-16ca-4358-990e-ed573e3400ad}, !- Space Name
  Outdoors,                               !- Outside Boundary Condition
  ,                                       !- Outside Boundary Condition Object
  SunExposed,                             !- Sun Exposure
  WindExposed,                            !- Wind Exposure
  ,                                       !- View Factor to Ground
  ,                                       !- Number of Vertices
  8.34729177637873, 2.78243059212624, 1.69601529606312, !- X,Y,Z Vertex 1 {m}
  11.129722368505, 0, 0.304799999999997,  !- X,Y,Z Vertex 2 {m}
  11.129722368505, 5.56486118425249, 0.304799999999997; !- X,Y,Z Vertex 3 {m}

OS:Space,
  {6af800ed-16ca-4358-990e-ed573e3400ad}, !- Handle
  finished attic space,                   !- Name
  {bdbb6973-5089-4ac5-8e5d-2cbd97d5dd78}, !- Space Type Name
  ,                                       !- Default Construction Set Name
  ,                                       !- Default Schedule Set Name
  -0,                                     !- Direction of Relative North {deg}
  0,                                      !- X Origin {m}
  0,                                      !- Y Origin {m}
  4.8768,                                 !- Z Origin {m}
  ,                                       !- Building Story Name
  {41a7d054-b7bd-4027-bd2b-d5752b062f31}, !- Thermal Zone Name
  ,                                       !- Part of Total Floor Area
  ,                                       !- Design Specification Outdoor Air Object Name
  {f9e73481-988c-43c8-a1c3-ab713249f9dd}; !- Building Unit Name

OS:BuildingUnit,
  {f9e73481-988c-43c8-a1c3-ab713249f9dd}, !- Handle
  unit 1,                                 !- Name
  ,                                       !- Rendering Color
  Residential;                            !- Building Unit Type

OS:Building,
  {c05ea775-a846-4dfd-a426-8797dc5fa7af}, !- Handle
  Building 1,                             !- Name
  ,                                       !- Building Sector Type
  0,                                      !- North Axis {deg}
  ,                                       !- Nominal Floor to Floor Height {m}
  ,                                       !- Space Type Name
  ,                                       !- Default Construction Set Name
  ,                                       !- Default Schedule Set Name
  3,                                      !- Standards Number of Stories
  3,                                      !- Standards Number of Above Ground Stories
  ,                                       !- Standards Template
  singlefamilydetached,                   !- Standards Building Type
  1;                                      !- Standards Number of Living Units

OS:AdditionalProperties,
  {b35d5d18-b6ef-4e85-979b-26793ebf4011}, !- Handle
  {c05ea775-a846-4dfd-a426-8797dc5fa7af}, !- Object Name
  Total Units Represented,                !- Feature Name 1
  Integer,                                !- Feature Data Type 1
  1,                                      !- Feature Value 1
  Total Units Modeled,                    !- Feature Name 2
  Integer,                                !- Feature Data Type 2
  1;                                      !- Feature Value 2

OS:AdditionalProperties,
  {dca00605-3c93-4370-afe1-3290f1fdafef}, !- Handle
  {f9e73481-988c-43c8-a1c3-ab713249f9dd}, !- Object Name
  NumberOfBedrooms,                       !- Feature Name 1
  Integer,                                !- Feature Data Type 1
  3,                                      !- Feature Value 1
  NumberOfBathrooms,                      !- Feature Name 2
  Double,                                 !- Feature Data Type 2
  2;                                      !- Feature Value 2

OS:Schedule:Day,
  {c4240f21-5c99-4781-8bd9-061a41737034}, !- Handle
  Schedule Day 1,                         !- Name
  ,                                       !- Schedule Type Limits Name
  ,                                       !- Interpolate to Timestep
  24,                                     !- Hour 1
  0,                                      !- Minute 1
  0;                                      !- Value Until Time 1

OS:Schedule:Day,
  {25bc41b7-651b-44e0-b5e9-cf7782c5aff5}, !- Handle
  Schedule Day 2,                         !- Name