!- NOTE: Auto-generated from /test/osw_files/SFD_2000sqft_2story_CS_UA.osw

OS:Version,
  {050943d4-e34b-4aa4-837a-fc3272fcd3ff}, !- Handle
  2.9.1;                                  !- Version Identifier

OS:SimulationControl,
  {618207ec-68ce-42bb-bd08-c9b44132bdfe}, !- Handle
  ,                                       !- Do Zone Sizing Calculation
  ,                                       !- Do System Sizing Calculation
  ,                                       !- Do Plant Sizing Calculation
  No;                                     !- Run Simulation for Sizing Periods

OS:Timestep,
  {ee393318-6a7f-4e82-85eb-82900b49b1a0}, !- Handle
  6;                                      !- Number of Timesteps per Hour

OS:ShadowCalculation,
  {2b13a2c7-f902-4331-8ffc-31d383e2b976}, !- Handle
  20,                                     !- Calculation Frequency
  200;                                    !- Maximum Figures in Shadow Overlap Calculations

OS:SurfaceConvectionAlgorithm:Outside,
  {2a42ac05-d76c-49d3-93c0-40887a98985a}, !- Handle
  DOE-2;                                  !- Algorithm

OS:SurfaceConvectionAlgorithm:Inside,
  {f2808413-5216-4492-a1df-7df7445194d3}, !- Handle
  TARP;                                   !- Algorithm

OS:ZoneCapacitanceMultiplier:ResearchSpecial,
  {1f429847-128a-414f-a550-a6bf6c11d759}, !- Handle
  ,                                       !- Temperature Capacity Multiplier
  15,                                     !- Humidity Capacity Multiplier
  ;                                       !- Carbon Dioxide Capacity Multiplier

OS:RunPeriod,
  {ff17413b-db26-4a05-8690-54ac7be7b2a5}, !- Handle
  Run Period 1,                           !- Name
  1,                                      !- Begin Month
  1,                                      !- Begin Day of Month
  12,                                     !- End Month
  31,                                     !- End Day of Month
  ,                                       !- Use Weather File Holidays and Special Days
  ,                                       !- Use Weather File Daylight Saving Period
  ,                                       !- Apply Weekend Holiday Rule
  ,                                       !- Use Weather File Rain Indicators
  ,                                       !- Use Weather File Snow Indicators
  ;                                       !- Number of Times Runperiod to be Repeated

OS:YearDescription,
  {ccf66019-3b09-4a62-85ff-0904ceb104ed}, !- Handle
  2007,                                   !- Calendar Year
  ,                                       !- Day of Week for Start Day
  ;                                       !- Is Leap Year

OS:ThermalZone,
  {c78f8d4f-39ed-467a-af6f-dc07cc18ab4e}, !- Handle
  living zone,                            !- Name
  ,                                       !- Multiplier
  ,                                       !- Ceiling Height {m}
  ,                                       !- Volume {m3}
  ,                                       !- Floor Area {m2}
  ,                                       !- Zone Inside Convection Algorithm
  ,                                       !- Zone Outside Convection Algorithm
  ,                                       !- Zone Conditioning Equipment List Name
  {1321a210-6944-4281-b846-501b3abfac13}, !- Zone Air Inlet Port List
  {03e424b3-5bea-48ba-962a-e2344be626a7}, !- Zone Air Exhaust Port List
  {9b317757-886a-48e0-baaa-8f578bea1bb4}, !- Zone Air Node Name
  {8402a2ce-43bf-4d82-8b0e-99d1190abcad}, !- Zone Return Air Port List
  ,                                       !- Primary Daylighting Control Name
  ,                                       !- Fraction of Zone Controlled by Primary Daylighting Control
  ,                                       !- Secondary Daylighting Control Name
  ,                                       !- Fraction of Zone Controlled by Secondary Daylighting Control
  ,                                       !- Illuminance Map Name
  ,                                       !- Group Rendering Name
  ,                                       !- Thermostat Name
  No;                                     !- Use Ideal Air Loads

OS:Node,
  {0e05e349-0fb4-4a05-abd8-75c084d4c705}, !- Handle
  Node 1,                                 !- Name
  {9b317757-886a-48e0-baaa-8f578bea1bb4}, !- Inlet Port
  ;                                       !- Outlet Port

OS:Connection,
  {9b317757-886a-48e0-baaa-8f578bea1bb4}, !- Handle
  {7ebb275b-0707-4cf6-9769-1227e028c3f3}, !- Name
  {c78f8d4f-39ed-467a-af6f-dc07cc18ab4e}, !- Source Object
  11,                                     !- Outlet Port
  {0e05e349-0fb4-4a05-abd8-75c084d4c705}, !- Target Object
  2;                                      !- Inlet Port

OS:PortList,
  {1321a210-6944-4281-b846-501b3abfac13}, !- Handle
  {dd471df6-eb11-4808-9ced-d6b80d0ff6be}, !- Name
  {c78f8d4f-39ed-467a-af6f-dc07cc18ab4e}; !- HVAC Component

OS:PortList,
  {03e424b3-5bea-48ba-962a-e2344be626a7}, !- Handle
  {73456a0c-cde9-437a-9a8e-78cd6626ebf5}, !- Name
  {c78f8d4f-39ed-467a-af6f-dc07cc18ab4e}; !- HVAC Component

OS:PortList,
  {8402a2ce-43bf-4d82-8b0e-99d1190abcad}, !- Handle
  {9e70fa7e-50d9-4c0c-986b-77bac7d80a01}, !- Name
  {c78f8d4f-39ed-467a-af6f-dc07cc18ab4e}; !- HVAC Component

OS:Sizing:Zone,
  {c27d56d7-6627-4ecd-a4d2-1f81cf0586dc}, !- Handle
  {c78f8d4f-39ed-467a-af6f-dc07cc18ab4e}, !- Zone or ZoneList Name
  SupplyAirTemperature,                   !- Zone Cooling Design Supply Air Temperature Input Method
  14,                                     !- Zone Cooling Design Supply Air Temperature {C}
  11.11,                                  !- Zone Cooling Design Supply Air Temperature Difference {deltaC}
  SupplyAirTemperature,                   !- Zone Heating Design Supply Air Temperature Input Method
  40,                                     !- Zone Heating Design Supply Air Temperature {C}
  11.11,                                  !- Zone Heating Design Supply Air Temperature Difference {deltaC}
  0.0085,                                 !- Zone Cooling Design Supply Air Humidity Ratio {kg-H2O/kg-air}
  0.008,                                  !- Zone Heating Design Supply Air Humidity Ratio {kg-H2O/kg-air}
  ,                                       !- Zone Heating Sizing Factor
  ,                                       !- Zone Cooling Sizing Factor
  DesignDay,                              !- Cooling Design Air Flow Method
  ,                                       !- Cooling Design Air Flow Rate {m3/s}
  ,                                       !- Cooling Minimum Air Flow per Zone Floor Area {m3/s-m2}
  ,                                       !- Cooling Minimum Air Flow {m3/s}
  ,                                       !- Cooling Minimum Air Flow Fraction
  DesignDay,                              !- Heating Design Air Flow Method
  ,                                       !- Heating Design Air Flow Rate {m3/s}
  ,                                       !- Heating Maximum Air Flow per Zone Floor Area {m3/s-m2}
  ,                                       !- Heating Maximum Air Flow {m3/s}
  ,                                       !- Heating Maximum Air Flow Fraction
  ,                                       !- Design Zone Air Distribution Effectiveness in Cooling Mode
  ,                                       !- Design Zone Air Distribution Effectiveness in Heating Mode
  No,                                     !- Account for Dedicated Outdoor Air System
  NeutralSupplyAir,                       !- Dedicated Outdoor Air System Control Strategy
  autosize,                               !- Dedicated Outdoor Air Low Setpoint Temperature for Design {C}
  autosize;                               !- Dedicated Outdoor Air High Setpoint Temperature for Design {C}

OS:ZoneHVAC:EquipmentList,
  {7bb78c9c-c5dc-4c21-a9c9-1204b9a11145}, !- Handle
  Zone HVAC Equipment List 1,             !- Name
  {c78f8d4f-39ed-467a-af6f-dc07cc18ab4e}; !- Thermal Zone

OS:Space,
  {f7e022bc-047e-44e3-89a6-ddb3cca16782}, !- Handle
  living space,                           !- Name
  {808916a5-0cc4-42c4-8c19-137df0867170}, !- Space Type Name
  ,                                       !- Default Construction Set Name
  ,                                       !- Default Schedule Set Name
  -0,                                     !- Direction of Relative North {deg}
  0,                                      !- X Origin {m}
  0,                                      !- Y Origin {m}
  0,                                      !- Z Origin {m}
  ,                                       !- Building Story Name
  {c78f8d4f-39ed-467a-af6f-dc07cc18ab4e}, !- Thermal Zone Name
  ,                                       !- Part of Total Floor Area
  ,                                       !- Design Specification Outdoor Air Object Name
  {7481bee2-47bb-4ece-b12f-b7411fe5c037}; !- Building Unit Name

OS:Surface,
  {b1257610-dad5-4390-a88d-08b62a6db219}, !- Handle
  Surface 1,                              !- Name
  Floor,                                  !- Surface Type
  ,                                       !- Construction Name
  {f7e022bc-047e-44e3-89a6-ddb3cca16782}, !- Space Name
  Surface,                                !- Outside Boundary Condition
  {19e472f7-28d6-479b-b137-a988e147c96c}, !- Outside Boundary Condition Object
  NoSun,                                  !- Sun Exposure
  NoWind,                                 !- Wind Exposure
  ,                                       !- View Factor to Ground
  ,                                       !- Number of Vertices
  0, 0, 0,                                !- X,Y,Z Vertex 1 {m}
  0, 6.81553519541936, 0,                 !- X,Y,Z Vertex 2 {m}
  13.6310703908387, 6.81553519541936, 0,  !- X,Y,Z Vertex 3 {m}
  13.6310703908387, 0, 0;                 !- X,Y,Z Vertex 4 {m}

OS:Surface,
  {24bf198b-bc83-461d-9e2b-615d11d6ee03}, !- Handle
  Surface 2,                              !- Name
  Wall,                                   !- Surface Type
  ,                                       !- Construction Name
  {f7e022bc-047e-44e3-89a6-ddb3cca16782}, !- Space Name
  Outdoors,                               !- Outside Boundary Condition
  ,                                       !- Outside Boundary Condition Object
  SunExposed,                             !- Sun Exposure
  WindExposed,                            !- Wind Exposure
  ,                                       !- View Factor to Ground
  ,                                       !- Number of Vertices
  0, 6.81553519541936, 2.4384,            !- X,Y,Z Vertex 1 {m}
  0, 6.81553519541936, 0,                 !- X,Y,Z Vertex 2 {m}
  0, 0, 0,                                !- X,Y,Z Vertex 3 {m}
  0, 0, 2.4384;                           !- X,Y,Z Vertex 4 {m}

OS:Surface,
  {05f32461-a899-48d6-addd-9db84cc2597e}, !- Handle
  Surface 3,                              !- Name
  Wall,                                   !- Surface Type
  ,                                       !- Construction Name
  {f7e022bc-047e-44e3-89a6-ddb3cca16782}, !- Space Name
  Outdoors,                               !- Outside Boundary Condition
  ,                                       !- Outside Boundary Condition Object
  SunExposed,                             !- Sun Exposure
  WindExposed,                            !- Wind Exposure
  ,                                       !- View Factor to Ground
  ,                                       !- Number of Vertices
  13.6310703908387, 6.81553519541936, 2.4384, !- X,Y,Z Vertex 1 {m}
  13.6310703908387, 6.81553519541936, 0,  !- X,Y,Z Vertex 2 {m}
  0, 6.81553519541936, 0,                 !- X,Y,Z Vertex 3 {m}
  0, 6.81553519541936, 2.4384;            !- X,Y,Z Vertex 4 {m}

OS:Surface,
  {0b643004-eafa-45f6-b1c4-5b3d445f0a0c}, !- Handle
  Surface 4,                              !- Name
  Wall,                                   !- Surface Type
  ,                                       !- Construction Name
  {f7e022bc-047e-44e3-89a6-ddb3cca16782}, !- Space Name
  Outdoors,                               !- Outside Boundary Condition
  ,                                       !- Outside Boundary Condition Object
  SunExposed,                             !- Sun Exposure
  WindExposed,                            !- Wind Exposure
  ,                                       !- View Factor to Ground
  ,                                       !- Number of Vertices
  13.6310703908387, 0, 2.4384,            !- X,Y,Z Vertex 1 {m}
  13.6310703908387, 0, 0,                 !- X,Y,Z Vertex 2 {m}
  13.6310703908387, 6.81553519541936, 0,  !- X,Y,Z Vertex 3 {m}
  13.6310703908387, 6.81553519541936, 2.4384; !- X,Y,Z Vertex 4 {m}

OS:Surface,
  {a6b795ed-0620-46f9-a07e-2bba39b12b38}, !- Handle
  Surface 5,                              !- Name
  Wall,                                   !- Surface Type
  ,                                       !- Construction Name
  {f7e022bc-047e-44e3-89a6-ddb3cca16782}, !- Space Name
  Outdoors,                               !- Outside Boundary Condition
  ,                                       !- Outside Boundary Condition Object
  SunExposed,                             !- Sun Exposure
  WindExposed,                            !- Wind Exposure
  ,                                       !- View Factor to Ground
  ,                                       !- Number of Vertices
  0, 0, 2.4384,                           !- X,Y,Z Vertex 1 {m}
  0, 0, 0,                                !- X,Y,Z Vertex 2 {m}
  13.6310703908387, 0, 0,                 !- X,Y,Z Vertex 3 {m}
  13.6310703908387, 0, 2.4384;            !- X,Y,Z Vertex 4 {m}

OS:Surface,
  {1aa3f8e6-543c-4f8b-a6dd-422269fe7e6d}, !- Handle
  Surface 6,                              !- Name
  RoofCeiling,                            !- Surface Type
  ,                                       !- Construction Name
  {f7e022bc-047e-44e3-89a6-ddb3cca16782}, !- Space Name
  Surface,                                !- Outside Boundary Condition
  {51cc4f5b-7d66-4740-a6b3-be02cf4eb35e}, !- Outside Boundary Condition Object
  NoSun,                                  !- Sun Exposure
  NoWind,                                 !- Wind Exposure
  ,                                       !- View Factor to Ground
  ,                                       !- Number of Vertices
  13.6310703908387, 0, 2.4384,            !- X,Y,Z Vertex 1 {m}
  13.6310703908387, 6.81553519541936, 2.4384, !- X,Y,Z Vertex 2 {m}
  0, 6.81553519541936, 2.4384,            !- X,Y,Z Vertex 3 {m}
  0, 0, 2.4384;                           !- X,Y,Z Vertex 4 {m}

OS:SpaceType,
  {808916a5-0cc4-42c4-8c19-137df0867170}, !- Handle
  Space Type 1,                           !- Name
  ,                                       !- Default Construction Set Name
  ,                                       !- Default Schedule Set Name
  ,                                       !- Group Rendering Name
  ,                                       !- Design Specification Outdoor Air Object Name
  ,                                       !- Standards Template
  ,                                       !- Standards Building Type
  living;                                 !- Standards Space Type

OS:Space,
  {f4f01c33-58e1-43fc-97cc-a470cf9a1b79}, !- Handle
  living space|story 2,                   !- Name
  {808916a5-0cc4-42c4-8c19-137df0867170}, !- Space Type Name
  ,                                       !- Default Construction Set Name
  ,                                       !- Default Schedule Set Name
  -0,                                     !- Direction of Relative North {deg}
  0,                                      !- X Origin {m}
  0,                                      !- Y Origin {m}
  2.4384,                                 !- Z Origin {m}
  ,                                       !- Building Story Name
  {c78f8d4f-39ed-467a-af6f-dc07cc18ab4e}, !- Thermal Zone Name
  ,                                       !- Part of Total Floor Area
  ,                                       !- Design Specification Outdoor Air Object Name
  {7481bee2-47bb-4ece-b12f-b7411fe5c037}; !- Building Unit Name

OS:Surface,
  {51cc4f5b-7d66-4740-a6b3-be02cf4eb35e}, !- Handle
  Surface 7,                              !- Name
  Floor,                                  !- Surface Type
  ,                                       !- Construction Name
  {f4f01c33-58e1-43fc-97cc-a470cf9a1b79}, !- Space Name
  Surface,                                !- Outside Boundary Condition
  {1aa3f8e6-543c-4f8b-a6dd-422269fe7e6d}, !- Outside Boundary Condition Object
  NoSun,                                  !- Sun Exposure
  NoWind,                                 !- Wind Exposure
  ,                                       !- View Factor to Ground
  ,                                       !- Number of Vertices
  0, 0, 0,                                !- X,Y,Z Vertex 1 {m}
  0, 6.81553519541936, 0,                 !- X,Y,Z Vertex 2 {m}
  13.6310703908387, 6.81553519541936, 0,  !- X,Y,Z Vertex 3 {m}
  13.6310703908387, 0, 0;                 !- X,Y,Z Vertex 4 {m}

OS:Surface,
  {0552c658-aed3-4195-a6cf-1f3c80cef79a}, !- Handle
  Surface 8,                              !- Name
  Wall,                                   !- Surface Type
  ,                                       !- Construction Name
  {f4f01c33-58e1-43fc-97cc-a470cf9a1b79}, !- Space Name
  Outdoors,                               !- Outside Boundary Condition
  ,                                       !- Outside Boundary Condition Object
  SunExposed,                             !- Sun Exposure
  WindExposed,                            !- Wind Exposure
  ,                                       !- View Factor to Ground
  ,                                       !- Number of Vertices
  0, 6.81553519541936, 2.4384,            !- X,Y,Z Vertex 1 {m}
  0, 6.81553519541936, 0,                 !- X,Y,Z Vertex 2 {m}
  0, 0, 0,                                !- X,Y,Z Vertex 3 {m}
  0, 0, 2.4384;                           !- X,Y,Z Vertex 4 {m}

OS:Surface,
  {f93fea3f-b676-4976-b52d-9c7e9c1cad1e}, !- Handle
  Surface 9,                              !- Name
  Wall,                                   !- Surface Type
  ,                                       !- Construction Name
  {f4f01c33-58e1-43fc-97cc-a470cf9a1b79}, !- Space Name
  Outdoors,                               !- Outside Boundary Condition
  ,                                       !- Outside Boundary Condition Object
  SunExposed,                             !- Sun Exposure
  WindExposed,                            !- Wind Exposure
  ,                                       !- View Factor to Ground
  ,                                       !- Number of Vertices
  13.6310703908387, 6.81553519541936, 2.4384, !- X,Y,Z Vertex 1 {m}
  13.6310703908387, 6.81553519541936, 0,  !- X,Y,Z Vertex 2 {m}
  0, 6.81553519541936, 0,                 !- X,Y,Z Vertex 3 {m}
  0, 6.81553519541936, 2.4384;            !- X,Y,Z Vertex 4 {m}

OS:Surface,
  {47cfb22f-0c9a-492b-9225-0d97bed1f0fd}, !- Handle
  Surface 10,                             !- Name
  Wall,                                   !- Surface Type
  ,                                       !- Construction Name
  {f4f01c33-58e1-43fc-97cc-a470cf9a1b79}, !- Space Name
  Outdoors,                               !- Outside Boundary Condition
  ,                                       !- Outside Boundary Condition Object
  SunExposed,                             !- Sun Exposure
  WindExposed,                            !- Wind Exposure
  ,                                       !- View Factor to Ground
  ,                                       !- Number of Vertices
  13.6310703908387, 0, 2.4384,            !- X,Y,Z Vertex 1 {m}
  13.6310703908387, 0, 0,                 !- X,Y,Z Vertex 2 {m}
  13.6310703908387, 6.81553519541936, 0,  !- X,Y,Z Vertex 3 {m}
  13.6310703908387, 6.81553519541936, 2.4384; !- X,Y,Z Vertex 4 {m}

OS:Surface,
  {a08f4012-43aa-4869-878a-bada6aa82b65}, !- Handle
  Surface 11,                             !- Name
  Wall,                                   !- Surface Type
  ,                                       !- Construction Name
  {f4f01c33-58e1-43fc-97cc-a470cf9a1b79}, !- Space Name
  Outdoors,                               !- Outside Boundary Condition
  ,                                       !- Outside Boundary Condition Object
  SunExposed,                             !- Sun Exposure
  WindExposed,                            !- Wind Exposure
  ,                                       !- View Factor to Ground
  ,                                       !- Number of Vertices
  0, 0, 2.4384,                           !- X,Y,Z Vertex 1 {m}
  0, 0, 0,                                !- X,Y,Z Vertex 2 {m}
  13.6310703908387, 0, 0,                 !- X,Y,Z Vertex 3 {m}
  13.6310703908387, 0, 2.4384;            !- X,Y,Z Vertex 4 {m}

OS:Surface,
  {5df3310c-f7e5-43cd-a15f-349f7947b046}, !- Handle
  Surface 12,                             !- Name
  RoofCeiling,                            !- Surface Type
  ,                                       !- Construction Name
  {f4f01c33-58e1-43fc-97cc-a470cf9a1b79}, !- Space Name
  Surface,                                !- Outside Boundary Condition
  {c8e7383a-0098-41c9-b9d5-bf345cbdec59}, !- Outside Boundary Condition Object
  NoSun,                                  !- Sun Exposure
  NoWind,                                 !- Wind Exposure
  ,                                       !- View Factor to Ground
  ,                                       !- Number of Vertices
  13.6310703908387, 0, 2.4384,            !- X,Y,Z Vertex 1 {m}
  13.6310703908387, 6.81553519541936, 2.4384, !- X,Y,Z Vertex 2 {m}
  0, 6.81553519541936, 2.4384,            !- X,Y,Z Vertex 3 {m}
  0, 0, 2.4384;                           !- X,Y,Z Vertex 4 {m}

OS:Surface,
  {c8e7383a-0098-41c9-b9d5-bf345cbdec59}, !- Handle
  Surface 13,                             !- Name
  Floor,                                  !- Surface Type
  ,                                       !- Construction Name
  {66ce796b-4ed9-49fe-b09d-e6392e4b7b32}, !- Space Name
  Surface,                                !- Outside Boundary Condition
  {5df3310c-f7e5-43cd-a15f-349f7947b046}, !- Outside Boundary Condition Object
  NoSun,                                  !- Sun Exposure
  NoWind,                                 !- Wind Exposure
  ,                                       !- View Factor to Ground
  ,                                       !- Number of Vertices
  0, 6.81553519541936, 0,                 !- X,Y,Z Vertex 1 {m}
  13.6310703908387, 6.81553519541936, 0,  !- X,Y,Z Vertex 2 {m}
  13.6310703908387, 0, 0,                 !- X,Y,Z Vertex 3 {m}
  0, 0, 0;                                !- X,Y,Z Vertex 4 {m}

OS:Surface,
  {fcf7f056-334e-42df-ba1a-bb7f0ec96960}, !- Handle
  Surface 14,                             !- Name
  RoofCeiling,                            !- Surface Type
  ,                                       !- Construction Name
  {66ce796b-4ed9-49fe-b09d-e6392e4b7b32}, !- Space Name
  Outdoors,                               !- Outside Boundary Condition
  ,                                       !- Outside Boundary Condition Object
  SunExposed,                             !- Sun Exposure
  WindExposed,                            !- Wind Exposure
  ,                                       !- View Factor to Ground
  ,                                       !- Number of Vertices
  13.6310703908387, 3.40776759770968, 2.00868379885484, !- X,Y,Z Vertex 1 {m}
  0, 3.40776759770968, 2.00868379885484,  !- X,Y,Z Vertex 2 {m}
  0, 0, 0.3048,                           !- X,Y,Z Vertex 3 {m}
  13.6310703908387, 0, 0.3048;            !- X,Y,Z Vertex 4 {m}

OS:Surface,
  {49933a58-370d-4b59-82d8-24e2a8d3116d}, !- Handle
  Surface 15,                             !- Name
  RoofCeiling,                            !- Surface Type
  ,                                       !- Construction Name
  {66ce796b-4ed9-49fe-b09d-e6392e4b7b32}, !- Space Name
  Outdoors,                               !- Outside Boundary Condition
  ,                                       !- Outside Boundary Condition Object
  SunExposed,                             !- Sun Exposure
  WindExposed,                            !- Wind Exposure
  ,                                       !- View Factor to Ground
  ,                                       !- Number of Vertices
  0, 3.40776759770968, 2.00868379885484,  !- X,Y,Z Vertex 1 {m}
  13.6310703908387, 3.40776759770968, 2.00868379885484, !- X,Y,Z Vertex 2 {m}
  13.6310703908387, 6.81553519541936, 0.3048, !- X,Y,Z Vertex 3 {m}
  0, 6.81553519541936, 0.3048;            !- X,Y,Z Vertex 4 {m}

OS:Surface,
  {441bcbc9-f56a-4ec3-868b-863fe52cf082}, !- Handle
  Surface 16,                             !- Name
  Wall,                                   !- Surface Type
  ,                                       !- Construction Name
  {66ce796b-4ed9-49fe-b09d-e6392e4b7b32}, !- Space Name
  Outdoors,                               !- Outside Boundary Condition
  ,                                       !- Outside Boundary Condition Object
  SunExposed,                             !- Sun Exposure
  WindExposed,                            !- Wind Exposure
  ,                                       !- View Factor to Ground
  ,                                       !- Number of Vertices
  0, 3.40776759770968, 1.70388379885484,  !- X,Y,Z Vertex 1 {m}
  0, 6.81553519541936, 0,                 !- X,Y,Z Vertex 2 {m}
  0, 0, 0;                                !- X,Y,Z Vertex 3 {m}

OS:Surface,
  {e557455e-8da6-4d12-8d46-9a777d044290}, !- Handle
  Surface 17,                             !- Name
  Wall,                                   !- Surface Type
  ,                                       !- Construction Name
  {66ce796b-4ed9-49fe-b09d-e6392e4b7b32}, !- Space Name
  Outdoors,                               !- Outside Boundary Condition
  ,                                       !- Outside Boundary Condition Object
  SunExposed,                             !- Sun Exposure
  WindExposed,                            !- Wind Exposure
  ,                                       !- View Factor to Ground
  ,                                       !- Number of Vertices
  13.6310703908387, 3.40776759770968, 1.70388379885484, !- X,Y,Z Vertex 1 {m}
  13.6310703908387, 0, 0,                 !- X,Y,Z Vertex 2 {m}
  13.6310703908387, 6.81553519541936, 0;  !- X,Y,Z Vertex 3 {m}

OS:Space,
  {66ce796b-4ed9-49fe-b09d-e6392e4b7b32}, !- Handle
  unfinished attic space,                 !- Name
  {5faa1ef6-9b9b-4fee-ba24-e99fa7dc5df9}, !- Space Type Name
  ,                                       !- Default Construction Set Name
  ,                                       !- Default Schedule Set Name
  -0,                                     !- Direction of Relative North {deg}
  0,                                      !- X Origin {m}
  0,                                      !- Y Origin {m}
  4.8768,                                 !- Z Origin {m}
  ,                                       !- Building Story Name
  {8310a486-21ba-4e48-8fd0-24f1a875aa13}; !- Thermal Zone Name

OS:ThermalZone,
  {8310a486-21ba-4e48-8fd0-24f1a875aa13}, !- Handle
  unfinished attic zone,                  !- Name
  ,                                       !- Multiplier
  ,                                       !- Ceiling Height {m}
  ,                                       !- Volume {m3}
  ,                                       !- Floor Area {m2}
  ,                                       !- Zone Inside Convection Algorithm
  ,                                       !- Zone Outside Convection Algorithm
  ,                                       !- Zone Conditioning Equipment List Name
  {b7d00b0c-5ce8-4825-865e-c37146166f70}, !- Zone Air Inlet Port List
  {5376f5d0-6ca0-4e2e-b209-c9b3baf6209a}, !- Zone Air Exhaust Port List
  {fe2be1bb-4872-49b6-a33c-eab2b8cd43e4}, !- Zone Air Node Name
  {141f865a-d1bc-4a5b-9db6-7b7733fe3a16}, !- Zone Return Air Port List
  ,                                       !- Primary Daylighting Control Name
  ,                                       !- Fraction of Zone Controlled by Primary Daylighting Control
  ,                                       !- Secondary Daylighting Control Name
  ,                                       !- Fraction of Zone Controlled by Secondary Daylighting Control
  ,                                       !- Illuminance Map Name
  ,                                       !- Group Rendering Name
  ,                                       !- Thermostat Name
  No;                                     !- Use Ideal Air Loads

OS:Node,
  {0d197881-7dc5-4670-aa4b-e921590fe364}, !- Handle
  Node 2,                                 !- Name
  {fe2be1bb-4872-49b6-a33c-eab2b8cd43e4}, !- Inlet Port
  ;                                       !- Outlet Port

OS:Connection,
  {fe2be1bb-4872-49b6-a33c-eab2b8cd43e4}, !- Handle
  {6fdd4eba-7478-448b-bd1e-10afc7cfa8b0}, !- Name
  {8310a486-21ba-4e48-8fd0-24f1a875aa13}, !- Source Object
  11,                                     !- Outlet Port
  {0d197881-7dc5-4670-aa4b-e921590fe364}, !- Target Object
  2;                                      !- Inlet Port

OS:PortList,
  {b7d00b0c-5ce8-4825-865e-c37146166f70}, !- Handle
  {f117909c-d004-4214-b3ca-a96b5fbdccf1}, !- Name
  {8310a486-21ba-4e48-8fd0-24f1a875aa13}; !- HVAC Component

OS:PortList,
  {5376f5d0-6ca0-4e2e-b209-c9b3baf6209a}, !- Handle
  {80afa195-d581-450d-a855-646c318f4ab4}, !- Name
  {8310a486-21ba-4e48-8fd0-24f1a875aa13}; !- HVAC Component

OS:PortList,
  {141f865a-d1bc-4a5b-9db6-7b7733fe3a16}, !- Handle
  {75337acf-3a2e-4ad3-8838-438f8747fde5}, !- Name
  {8310a486-21ba-4e48-8fd0-24f1a875aa13}; !- HVAC Component

OS:Sizing:Zone,
  {a31184ad-eb8d-4f99-9709-49d35e4d1190}, !- Handle
  {8310a486-21ba-4e48-8fd0-24f1a875aa13}, !- Zone or ZoneList Name