!- NOTE: Auto-generated from /test/osw_files/SFD_2000sqft_2story_FB_GRG_UA_3Beds_2Baths_Denver_WHTank_ClothesWasher_PropaneClothesDryer.osw

OS:Version,
  {a6d3d275-c359-4bec-8956-7058e0b4a683}, !- Handle
  2.9.0;                                  !- Version Identifier

OS:SimulationControl,
  {34dc1b2a-980a-4274-9d80-80fdac09c49d}, !- Handle
  ,                                       !- Do Zone Sizing Calculation
  ,                                       !- Do System Sizing Calculation
  ,                                       !- Do Plant Sizing Calculation
  No;                                     !- Run Simulation for Sizing Periods

OS:Timestep,
  {1fa9ddf3-c651-4286-8c5f-c723594dc3f8}, !- Handle
  6;                                      !- Number of Timesteps per Hour

OS:ShadowCalculation,
  {89a086b4-520f-4399-8e3e-85a1d46c68a7}, !- Handle
  20,                                     !- Calculation Frequency
  200;                                    !- Maximum Figures in Shadow Overlap Calculations

OS:SurfaceConvectionAlgorithm:Outside,
  {ad1cdd99-589c-416b-a107-3f247b82fde7}, !- Handle
  DOE-2;                                  !- Algorithm

OS:SurfaceConvectionAlgorithm:Inside,
  {1f111f50-d96f-4771-adde-178f95d68819}, !- Handle
  TARP;                                   !- Algorithm

OS:ZoneCapacitanceMultiplier:ResearchSpecial,
  {852c4ba5-45d7-4af2-bede-cbc7b4b18f6a}, !- Handle
  ,                                       !- Temperature Capacity Multiplier
  15,                                     !- Humidity Capacity Multiplier
  ;                                       !- Carbon Dioxide Capacity Multiplier

OS:RunPeriod,
  {085ba608-de32-4c91-80c0-ce2e541803e9}, !- Handle
  Run Period 1,                           !- Name
  1,                                      !- Begin Month
  1,                                      !- Begin Day of Month
  12,                                     !- End Month
  31,                                     !- End Day of Month
  ,                                       !- Use Weather File Holidays and Special Days
  ,                                       !- Use Weather File Daylight Saving Period
  ,                                       !- Apply Weekend Holiday Rule
  ,                                       !- Use Weather File Rain Indicators
  ,                                       !- Use Weather File Snow Indicators
  ;                                       !- Number of Times Runperiod to be Repeated

OS:YearDescription,
  {64189f2f-9cfb-4c29-92e6-9582b84ecd31}, !- Handle
  2007,                                   !- Calendar Year
  ,                                       !- Day of Week for Start Day
  ;                                       !- Is Leap Year

OS:ThermalZone,
  {959d9d5f-a1b8-4916-9458-80aabf6b4ae3}, !- Handle
  living zone,                            !- Name
  ,                                       !- Multiplier
  ,                                       !- Ceiling Height {m}
  ,                                       !- Volume {m3}
  ,                                       !- Floor Area {m2}
  ,                                       !- Zone Inside Convection Algorithm
  ,                                       !- Zone Outside Convection Algorithm
  ,                                       !- Zone Conditioning Equipment List Name
  {160a6e08-53a7-451e-839c-c11288f12afa}, !- Zone Air Inlet Port List
  {d5db81d1-76ca-4018-9638-4d711464d8d7}, !- Zone Air Exhaust Port List
  {29b62a06-60de-41f1-9c2f-c9bad87e221c}, !- Zone Air Node Name
  {be39aa8a-0a2b-497e-b627-668970fee392}, !- Zone Return Air Port List
  ,                                       !- Primary Daylighting Control Name
  ,                                       !- Fraction of Zone Controlled by Primary Daylighting Control
  ,                                       !- Secondary Daylighting Control Name
  ,                                       !- Fraction of Zone Controlled by Secondary Daylighting Control
  ,                                       !- Illuminance Map Name
  ,                                       !- Group Rendering Name
  ,                                       !- Thermostat Name
  No;                                     !- Use Ideal Air Loads

OS:Node,
  {5f6673b4-19b9-4bfa-8d8f-87c2072a0cd2}, !- Handle
  Node 1,                                 !- Name
  {29b62a06-60de-41f1-9c2f-c9bad87e221c}, !- Inlet Port
  ;                                       !- Outlet Port

OS:Connection,
  {29b62a06-60de-41f1-9c2f-c9bad87e221c}, !- Handle
  {842fc3bf-cfcb-44fc-874f-b413aa1e7c6a}, !- Name
  {959d9d5f-a1b8-4916-9458-80aabf6b4ae3}, !- Source Object
  11,                                     !- Outlet Port
  {5f6673b4-19b9-4bfa-8d8f-87c2072a0cd2}, !- Target Object
  2;                                      !- Inlet Port

OS:PortList,
  {160a6e08-53a7-451e-839c-c11288f12afa}, !- Handle
  {c7fe5291-7cf5-448f-9bf1-3ee9db38df11}, !- Name
  {959d9d5f-a1b8-4916-9458-80aabf6b4ae3}; !- HVAC Component

OS:PortList,
  {d5db81d1-76ca-4018-9638-4d711464d8d7}, !- Handle
  {cd3b7b45-3841-4b97-a638-87121b623a4a}, !- Name
  {959d9d5f-a1b8-4916-9458-80aabf6b4ae3}; !- HVAC Component

OS:PortList,
  {be39aa8a-0a2b-497e-b627-668970fee392}, !- Handle
  {5d7f73d1-0836-496b-a95f-ff592e298641}, !- Name
  {959d9d5f-a1b8-4916-9458-80aabf6b4ae3}; !- HVAC Component

OS:Sizing:Zone,
  {40911349-60ce-4443-8db8-fc45da275cfe}, !- Handle
  {959d9d5f-a1b8-4916-9458-80aabf6b4ae3}, !- Zone or ZoneList Name
  SupplyAirTemperature,                   !- Zone Cooling Design Supply Air Temperature Input Method
  14,                                     !- Zone Cooling Design Supply Air Temperature {C}
  11.11,                                  !- Zone Cooling Design Supply Air Temperature Difference {deltaC}
  SupplyAirTemperature,                   !- Zone Heating Design Supply Air Temperature Input Method
  40,                                     !- Zone Heating Design Supply Air Temperature {C}
  11.11,                                  !- Zone Heating Design Supply Air Temperature Difference {deltaC}
  0.0085,                                 !- Zone Cooling Design Supply Air Humidity Ratio {kg-H2O/kg-air}
  0.008,                                  !- Zone Heating Design Supply Air Humidity Ratio {kg-H2O/kg-air}
  ,                                       !- Zone Heating Sizing Factor
  ,                                       !- Zone Cooling Sizing Factor
  DesignDay,                              !- Cooling Design Air Flow Method
  ,                                       !- Cooling Design Air Flow Rate {m3/s}
  ,                                       !- Cooling Minimum Air Flow per Zone Floor Area {m3/s-m2}
  ,                                       !- Cooling Minimum Air Flow {m3/s}
  ,                                       !- Cooling Minimum Air Flow Fraction
  DesignDay,                              !- Heating Design Air Flow Method
  ,                                       !- Heating Design Air Flow Rate {m3/s}
  ,                                       !- Heating Maximum Air Flow per Zone Floor Area {m3/s-m2}
  ,                                       !- Heating Maximum Air Flow {m3/s}
  ,                                       !- Heating Maximum Air Flow Fraction
  ,                                       !- Design Zone Air Distribution Effectiveness in Cooling Mode
  ,                                       !- Design Zone Air Distribution Effectiveness in Heating Mode
  No,                                     !- Account for Dedicated Outdoor Air System
  NeutralSupplyAir,                       !- Dedicated Outdoor Air System Control Strategy
  autosize,                               !- Dedicated Outdoor Air Low Setpoint Temperature for Design {C}
  autosize;                               !- Dedicated Outdoor Air High Setpoint Temperature for Design {C}

OS:ZoneHVAC:EquipmentList,
  {ec77e84a-ece7-4ed2-8d05-367a42ef069f}, !- Handle
  Zone HVAC Equipment List 1,             !- Name
  {959d9d5f-a1b8-4916-9458-80aabf6b4ae3}; !- Thermal Zone

OS:ThermalZone,
  {052df435-ac93-4cc6-99e6-dd5fcee78a82}, !- Handle
  garage zone,                            !- Name
  ,                                       !- Multiplier
  ,                                       !- Ceiling Height {m}
  ,                                       !- Volume {m3}
  ,                                       !- Floor Area {m2}
  ,                                       !- Zone Inside Convection Algorithm
  ,                                       !- Zone Outside Convection Algorithm
  ,                                       !- Zone Conditioning Equipment List Name
  {2f810b28-6b59-4197-a647-c20202991c8d}, !- Zone Air Inlet Port List
  {c06cc717-7c9b-4dbf-939d-8bf43ea5e473}, !- Zone Air Exhaust Port List
  {191ec37e-234e-41fe-9111-f24a49a7c891}, !- Zone Air Node Name
  {b16fc6f2-e153-48ae-95e8-9761a40bbdd8}, !- Zone Return Air Port List
  ,                                       !- Primary Daylighting Control Name
  ,                                       !- Fraction of Zone Controlled by Primary Daylighting Control
  ,                                       !- Secondary Daylighting Control Name
  ,                                       !- Fraction of Zone Controlled by Secondary Daylighting Control
  ,                                       !- Illuminance Map Name
  ,                                       !- Group Rendering Name
  ,                                       !- Thermostat Name
  No;                                     !- Use Ideal Air Loads

OS:Node,
  {bd230df8-ea77-4e75-b966-1a747c48a675}, !- Handle
  Node 2,                                 !- Name
  {191ec37e-234e-41fe-9111-f24a49a7c891}, !- Inlet Port
  ;                                       !- Outlet Port

OS:Connection,
  {191ec37e-234e-41fe-9111-f24a49a7c891}, !- Handle
  {3a9debdc-41a2-4245-9ffd-c5cb4e33c73a}, !- Name
  {052df435-ac93-4cc6-99e6-dd5fcee78a82}, !- Source Object
  11,                                     !- Outlet Port
  {bd230df8-ea77-4e75-b966-1a747c48a675}, !- Target Object
  2;                                      !- Inlet Port

OS:PortList,
  {2f810b28-6b59-4197-a647-c20202991c8d}, !- Handle
  {7f03e1cf-3e23-437c-b5a8-24c74a0428c4}, !- Name
  {052df435-ac93-4cc6-99e6-dd5fcee78a82}; !- HVAC Component

OS:PortList,
  {c06cc717-7c9b-4dbf-939d-8bf43ea5e473}, !- Handle
  {8eae8b82-bfc2-4590-9101-bdbb3474fb39}, !- Name
  {052df435-ac93-4cc6-99e6-dd5fcee78a82}; !- HVAC Component

OS:PortList,
  {b16fc6f2-e153-48ae-95e8-9761a40bbdd8}, !- Handle
  {09ec64b8-5c38-44f9-bfac-e4868097c945}, !- Name
  {052df435-ac93-4cc6-99e6-dd5fcee78a82}; !- HVAC Component

OS:Sizing:Zone,
  {12e1e4fd-80e5-4def-a148-1ca0a32b5e53}, !- Handle
  {052df435-ac93-4cc6-99e6-dd5fcee78a82}, !- Zone or ZoneList Name
  SupplyAirTemperature,                   !- Zone Cooling Design Supply Air Temperature Input Method
  14,                                     !- Zone Cooling Design Supply Air Temperature {C}
  11.11,                                  !- Zone Cooling Design Supply Air Temperature Difference {deltaC}
  SupplyAirTemperature,                   !- Zone Heating Design Supply Air Temperature Input Method
  40,                                     !- Zone Heating Design Supply Air Temperature {C}
  11.11,                                  !- Zone Heating Design Supply Air Temperature Difference {deltaC}
  0.0085,                                 !- Zone Cooling Design Supply Air Humidity Ratio {kg-H2O/kg-air}
  0.008,                                  !- Zone Heating Design Supply Air Humidity Ratio {kg-H2O/kg-air}
  ,                                       !- Zone Heating Sizing Factor
  ,                                       !- Zone Cooling Sizing Factor
  DesignDay,                              !- Cooling Design Air Flow Method
  ,                                       !- Cooling Design Air Flow Rate {m3/s}
  ,                                       !- Cooling Minimum Air Flow per Zone Floor Area {m3/s-m2}
  ,                                       !- Cooling Minimum Air Flow {m3/s}
  ,                                       !- Cooling Minimum Air Flow Fraction
  DesignDay,                              !- Heating Design Air Flow Method
  ,                                       !- Heating Design Air Flow Rate {m3/s}
  ,                                       !- Heating Maximum Air Flow per Zone Floor Area {m3/s-m2}
  ,                                       !- Heating Maximum Air Flow {m3/s}
  ,                                       !- Heating Maximum Air Flow Fraction
  ,                                       !- Design Zone Air Distribution Effectiveness in Cooling Mode
  ,                                       !- Design Zone Air Distribution Effectiveness in Heating Mode
  No,                                     !- Account for Dedicated Outdoor Air System
  NeutralSupplyAir,                       !- Dedicated Outdoor Air System Control Strategy
  autosize,                               !- Dedicated Outdoor Air Low Setpoint Temperature for Design {C}
  autosize;                               !- Dedicated Outdoor Air High Setpoint Temperature for Design {C}

OS:ZoneHVAC:EquipmentList,
  {600b7665-addb-4133-bfa3-05b7e45d82be}, !- Handle
  Zone HVAC Equipment List 2,             !- Name
  {052df435-ac93-4cc6-99e6-dd5fcee78a82}; !- Thermal Zone

OS:Space,
  {5b937831-7b1b-442d-9942-3b538409fc21}, !- Handle
  garage space,                           !- Name
  {2b9bb2b1-8d26-4c65-980d-2ed7d89873c5}, !- Space Type Name
  ,                                       !- Default Construction Set Name
  ,                                       !- Default Schedule Set Name
  -0,                                     !- Direction of Relative North {deg}
  0,                                      !- X Origin {m}
  0,                                      !- Y Origin {m}
  0,                                      !- Z Origin {m}
  ,                                       !- Building Story Name
  {052df435-ac93-4cc6-99e6-dd5fcee78a82}; !- Thermal Zone Name

OS:Surface,
  {fd3f8ebc-710f-41de-95b0-aa4da81b7e12}, !- Handle
  Surface 1,                              !- Name
  Floor,                                  !- Surface Type
  ,                                       !- Construction Name
  {5b937831-7b1b-442d-9942-3b538409fc21}, !- Space Name
  Foundation,                             !- Outside Boundary Condition
  ,                                       !- Outside Boundary Condition Object
  NoSun,                                  !- Sun Exposure
  NoWind,                                 !- Wind Exposure
  ,                                       !- View Factor to Ground
  ,                                       !- Number of Vertices
  5.57695129776527, -3.048, 0,            !- X,Y,Z Vertex 1 {m}
  5.57695129776527, 3.048, 0,             !- X,Y,Z Vertex 2 {m}
  11.6729512977653, 3.048, 0,             !- X,Y,Z Vertex 3 {m}
  11.6729512977653, -3.048, 0;            !- X,Y,Z Vertex 4 {m}

OS:Surface,
  {6eb9c34e-0dea-4fbc-9efa-016dbef7c999}, !- Handle
  Surface 2,                              !- Name
  Wall,                                   !- Surface Type
  ,                                       !- Construction Name
  {5b937831-7b1b-442d-9942-3b538409fc21}, !- Space Name
  Surface,                                !- Outside Boundary Condition
  {0f2eb5cc-acf3-4b4e-b6c4-d817b8966cbf}, !- Outside Boundary Condition Object
  NoSun,                                  !- Sun Exposure
  NoWind,                                 !- Wind Exposure
  ,                                       !- View Factor to Ground
  ,                                       !- Number of Vertices
  5.57695129776527, 3.048, 2.4384,        !- X,Y,Z Vertex 1 {m}
  5.57695129776527, 3.048, 0,             !- X,Y,Z Vertex 2 {m}
  5.57695129776527, 0, 0,                 !- X,Y,Z Vertex 3 {m}
  5.57695129776527, 0, 2.4384;            !- X,Y,Z Vertex 4 {m}

OS:Surface,
  {6cf5f663-a654-4f6f-81b0-cba31a895eb9}, !- Handle
  Surface 3,                              !- Name
  Wall,                                   !- Surface Type
  ,                                       !- Construction Name
  {5b937831-7b1b-442d-9942-3b538409fc21}, !- Space Name
  Surface,                                !- Outside Boundary Condition
  {0a0c3b31-2275-44bb-81e7-95918327e998}, !- Outside Boundary Condition Object
  NoSun,                                  !- Sun Exposure
  NoWind,                                 !- Wind Exposure
  ,                                       !- View Factor to Ground
  ,                                       !- Number of Vertices
  11.6729512977653, 3.048, 2.4384,        !- X,Y,Z Vertex 1 {m}
  11.6729512977653, 3.048, 0,             !- X,Y,Z Vertex 2 {m}
  5.57695129776527, 3.048, 0,             !- X,Y,Z Vertex 3 {m}
  5.57695129776527, 3.048, 2.4384;        !- X,Y,Z Vertex 4 {m}

OS:Surface,
  {3f40fa64-7900-40a7-b839-c97b24476338}, !- Handle
  Surface 4,                              !- Name
  Wall,                                   !- Surface Type
  ,                                       !- Construction Name
  {5b937831-7b1b-442d-9942-3b538409fc21}, !- Space Name
  Outdoors,                               !- Outside Boundary Condition
  ,                                       !- Outside Boundary Condition Object
  SunExposed,                             !- Sun Exposure
  WindExposed,                            !- Wind Exposure
  ,                                       !- View Factor to Ground
  ,                                       !- Number of Vertices
  11.6729512977653, -3.048, 2.4384,       !- X,Y,Z Vertex 1 {m}
  11.6729512977653, -3.048, 0,            !- X,Y,Z Vertex 2 {m}
  11.6729512977653, 3.048, 0,             !- X,Y,Z Vertex 3 {m}
  11.6729512977653, 3.048, 2.4384;        !- X,Y,Z Vertex 4 {m}

OS:Surface,
  {0b810e89-4462-4785-aaa3-e6f34fd53c8f}, !- Handle
  Surface 5,                              !- Name
  Wall,                                   !- Surface Type
  ,                                       !- Construction Name
  {5b937831-7b1b-442d-9942-3b538409fc21}, !- Space Name
  Outdoors,                               !- Outside Boundary Condition
  ,                                       !- Outside Boundary Condition Object
  SunExposed,                             !- Sun Exposure
  WindExposed,                            !- Wind Exposure
  ,                                       !- View Factor to Ground
  ,                                       !- Number of Vertices
  5.57695129776527, -3.048, 2.4384,       !- X,Y,Z Vertex 1 {m}
  5.57695129776527, -3.048, 0,            !- X,Y,Z Vertex 2 {m}
  11.6729512977653, -3.048, 0,            !- X,Y,Z Vertex 3 {m}
  11.6729512977653, -3.048, 2.4384;       !- X,Y,Z Vertex 4 {m}

OS:Surface,
  {972de8b8-2662-4ca6-9235-406b341fbbff}, !- Handle
  Surface 6,                              !- Name
  RoofCeiling,                            !- Surface Type
  ,                                       !- Construction Name
  {5b937831-7b1b-442d-9942-3b538409fc21}, !- Space Name
  Surface,                                !- Outside Boundary Condition
  {68416d27-bf16-4a59-a619-f74d31d84788}, !- Outside Boundary Condition Object
  NoSun,                                  !- Sun Exposure
  NoWind,                                 !- Wind Exposure
  ,                                       !- View Factor to Ground
  ,                                       !- Number of Vertices
  11.6729512977653, -3.048, 2.4384,       !- X,Y,Z Vertex 1 {m}
  11.6729512977653, 3.048, 2.4384,        !- X,Y,Z Vertex 2 {m}
  5.57695129776527, 3.048, 2.4384,        !- X,Y,Z Vertex 3 {m}
  5.57695129776527, -3.048, 2.4384;       !- X,Y,Z Vertex 4 {m}

OS:SpaceType,
  {2b9bb2b1-8d26-4c65-980d-2ed7d89873c5}, !- Handle
  Space Type 1,                           !- Name
  ,                                       !- Default Construction Set Name
  ,                                       !- Default Schedule Set Name
  ,                                       !- Group Rendering Name
  ,                                       !- Design Specification Outdoor Air Object Name
  ,                                       !- Standards Template
  ,                                       !- Standards Building Type
  garage;                                 !- Standards Space Type

OS:Space,
  {693cb00e-a227-4cc6-9cde-6a338b75d4a6}, !- Handle
  living space,                           !- Name
  {633cbf5a-7389-40b5-a49a-192ecdd514e7}, !- Space Type Name
  ,                                       !- Default Construction Set Name
  ,                                       !- Default Schedule Set Name
  -0,                                     !- Direction of Relative North {deg}
  0,                                      !- X Origin {m}
  0,                                      !- Y Origin {m}
  0,                                      !- Z Origin {m}
  ,                                       !- Building Story Name
  {959d9d5f-a1b8-4916-9458-80aabf6b4ae3}, !- Thermal Zone Name
  ,                                       !- Part of Total Floor Area
  ,                                       !- Design Specification Outdoor Air Object Name
  {7a83c848-c983-4ca0-a9b4-fa7c7597c3f6}; !- Building Unit Name

OS:Surface,
  {4d18cbd7-6bff-43d1-90a6-fbb32e1c459c}, !- Handle
  Surface 7,                              !- Name
  Floor,                                  !- Surface Type
  ,                                       !- Construction Name
  {693cb00e-a227-4cc6-9cde-6a338b75d4a6}, !- Space Name
  Surface,                                !- Outside Boundary Condition
  {4139bc74-3f03-46c9-902a-67c2881da7f9}, !- Outside Boundary Condition Object
  NoSun,                                  !- Sun Exposure
  NoWind,                                 !- Wind Exposure
  ,                                       !- View Factor to Ground
  ,                                       !- Number of Vertices
  0, 0, 0,                                !- X,Y,Z Vertex 1 {m}
  0, 5.83647564888264, 0,                 !- X,Y,Z Vertex 2 {m}
  11.6729512977653, 5.83647564888264, 0,  !- X,Y,Z Vertex 3 {m}
  11.6729512977653, 3.048, 0,             !- X,Y,Z Vertex 4 {m}
  5.57695129776527, 3.048, 0,             !- X,Y,Z Vertex 5 {m}
  5.57695129776527, 0, 0;                 !- X,Y,Z Vertex 6 {m}

OS:Surface,
  {6afd4073-eebc-46ba-828a-9b6d8b55c3f4}, !- Handle
  Surface 8,                              !- Name
  Wall,                                   !- Surface Type
  ,                                       !- Construction Name
  {693cb00e-a227-4cc6-9cde-6a338b75d4a6}, !- Space Name
  Outdoors,                               !- Outside Boundary Condition
  ,                                       !- Outside Boundary Condition Object
  SunExposed,                             !- Sun Exposure
  WindExposed,                            !- Wind Exposure
  ,                                       !- View Factor to Ground
  ,                                       !- Number of Vertices
  0, 5.83647564888264, 2.4384,            !- X,Y,Z Vertex 1 {m}
  0, 5.83647564888264, 0,                 !- X,Y,Z Vertex 2 {m}
  0, 0, 0,                                !- X,Y,Z Vertex 3 {m}
  0, 0, 2.4384;                           !- X,Y,Z Vertex 4 {m}

OS:Surface,
  {508e38c4-c7db-4630-b429-cfa8197f87f6}, !- Handle
  Surface 9,                              !- Name
  Wall,                                   !- Surface Type
  ,                                       !- Construction Name
  {693cb00e-a227-4cc6-9cde-6a338b75d4a6}, !- Space Name
  Outdoors,                               !- Outside Boundary Condition
  ,                                       !- Outside Boundary Condition Object
  SunExposed,                             !- Sun Exposure
  WindExposed,                            !- Wind Exposure
  ,                                       !- View Factor to Ground
  ,                                       !- Number of Vertices
  11.6729512977653, 5.83647564888264, 2.4384, !- X,Y,Z Vertex 1 {m}
  11.6729512977653, 5.83647564888264, 0,  !- X,Y,Z Vertex 2 {m}
  0, 5.83647564888264, 0,                 !- X,Y,Z Vertex 3 {m}
  0, 5.83647564888264, 2.4384;            !- X,Y,Z Vertex 4 {m}

OS:Surface,
  {c273af44-5752-4ece-aad0-132025c0ea7c}, !- Handle
  Surface 10,                             !- Name
  Wall,                                   !- Surface Type
  ,                                       !- Construction Name
  {693cb00e-a227-4cc6-9cde-6a338b75d4a6}, !- Space Name
  Outdoors,                               !- Outside Boundary Condition
  ,                                       !- Outside Boundary Condition Object
  SunExposed,                             !- Sun Exposure
  WindExposed,                            !- Wind Exposure
  ,                                       !- View Factor to Ground
  ,                                       !- Number of Vertices
  11.6729512977653, 3.048, 2.4384,        !- X,Y,Z Vertex 1 {m}
  11.6729512977653, 3.048, 0,             !- X,Y,Z Vertex 2 {m}
  11.6729512977653, 5.83647564888264, 0,  !- X,Y,Z Vertex 3 {m}
  11.6729512977653, 5.83647564888264, 2.4384; !- X,Y,Z Vertex 4 {m}

OS:Surface,
  {0a0c3b31-2275-44bb-81e7-95918327e998}, !- Handle
  Surface 11,                             !- Name
  Wall,                                   !- Surface Type
  ,                                       !- Construction Name
  {693cb00e-a227-4cc6-9cde-6a338b75d4a6}, !- Space Name
  Surface,                                !- Outside Boundary Condition
  {6cf5f663-a654-4f6f-81b0-cba31a895eb9}, !- Outside Boundary Condition Object
  NoSun,                                  !- Sun Exposure
  NoWind,                                 !- Wind Exposure
  ,                                       !- View Factor to Ground
  ,                                       !- Number of Vertices
  5.57695129776527, 3.048, 2.4384,        !- X,Y,Z Vertex 1 {m}
  5.57695129776527, 3.048, 0,             !- X,Y,Z Vertex 2 {m}
  11.6729512977653, 3.048, 0,             !- X,Y,Z Vertex 3 {m}
  11.6729512977653, 3.048, 2.4384;        !- X,Y,Z Vertex 4 {m}

OS:Surface,
  {0f2eb5cc-acf3-4b4e-b6c4-d817b8966cbf}, !- Handle
  Surface 12,                             !- Name
  Wall,                                   !- Surface Type
  ,                                       !- Construction Name
  {693cb00e-a227-4cc6-9cde-6a338b75d4a6}, !- Space Name
  Surface,                                !- Outside Boundary Condition
  {6eb9c34e-0dea-4fbc-9efa-016dbef7c999}, !- Outside Boundary Condition Object
  NoSun,                                  !- Sun Exposure
  NoWind,                                 !- Wind Exposure
  ,                                       !- View Factor to Ground
  ,                                       !- Number of Vertices
  5.57695129776527, 0, 2.4384,            !- X,Y,Z Vertex 1 {m}
  5.57695129776527, 0, 0,                 !- X,Y,Z Vertex 2 {m}
  5.57695129776527, 3.048, 0,             !- X,Y,Z Vertex 3 {m}
  5.57695129776527, 3.048, 2.4384;        !- X,Y,Z Vertex 4 {m}

OS:Surface,
  {971447fc-b567-4749-87f0-0595749ba1f0}, !- Handle
  Surface 13,                             !- Name
  Wall,                                   !- Surface Type
  ,                                       !- Construction Name
  {693cb00e-a227-4cc6-9cde-6a338b75d4a6}, !- Space Name
  Outdoors,                               !- Outside Boundary Condition
  ,                                       !- Outside Boundary Condition Object
  SunExposed,                             !- Sun Exposure
  WindExposed,                            !- Wind Exposure
  ,                                       !- View Factor to Ground
  ,                                       !- Number of Vertices
  0, 0, 2.4384,                           !- X,Y,Z Vertex 1 {m}
  0, 0, 0,                                !- X,Y,Z Vertex 2 {m}
  5.57695129776527, 0, 0,                 !- X,Y,Z Vertex 3 {m}
  5.57695129776527, 0, 2.4384;            !- X,Y,Z Vertex 4 {m}

OS:Surface,
  {4cb524c9-b843-4bee-b60f-cc30da91c402}, !- Handle
  Surface 14,                             !- Name
  RoofCeiling,                            !- Surface Type
  ,                                       !- Construction Name
  {693cb00e-a227-4cc6-9cde-6a338b75d4a6}, !- Space Name
  Surface,                                !- Outside Boundary Condition
  {48d0390d-ddb2-4bea-a4b7-8313919f593c}, !- Outside Boundary Condition Object
  NoSun,                                  !- Sun Exposure
  NoWind,                                 !- Wind Exposure
  ,                                       !- View Factor to Ground
  ,                                       !- Number of Vertices
  5.57695129776527, 0, 2.4384,            !- X,Y,Z Vertex 1 {m}
  5.57695129776527, 3.048, 2.4384,        !- X,Y,Z Vertex 2 {m}
  11.6729512977653, 3.048, 2.4384,        !- X,Y,Z Vertex 3 {m}
  11.6729512977653, 5.83647564888264, 2.4384, !- X,Y,Z Vertex 4 {m}
  0, 5.83647564888264, 2.4384,            !- X,Y,Z Vertex 5 {m}
  0, 0, 2.4384;                           !- X,Y,Z Vertex 6 {m}

OS:SpaceType,
  {633cbf5a-7389-40b5-a49a-192ecdd514e7}, !- Handle
  Space Type 2,                           !- Name
  ,                                       !- Default Construction Set Name
  ,                                       !- Default Schedule Set Name
  ,                                       !- Group Rendering Name
  ,                                       !- Design Specification Outdoor Air Object Name
  ,                                       !- Standards Template
  ,                                       !- Standards Building Type
  living;                                 !- Standards Space Type

OS:Space,
  {1d4ce056-f847-48f6-9c7f-9cfdf3e6e62e}, !- Handle
  living space|story 2,                   !- Name
  {633cbf5a-7389-40b5-a49a-192ecdd514e7}, !- Space Type Name