!- NOTE: Auto-generated from /test/osw_files/SFD_2000sqft_2story_CS_GRG_UA.osw

OS:Version,
  {3da33ebf-d6f4-4346-9284-8f280e109984}, !- Handle
  2.9.0;                                  !- Version Identifier

OS:SimulationControl,
  {438f90c3-84d0-4e63-8727-661ebe003f59}, !- Handle
  ,                                       !- Do Zone Sizing Calculation
  ,                                       !- Do System Sizing Calculation
  ,                                       !- Do Plant Sizing Calculation
  No;                                     !- Run Simulation for Sizing Periods

OS:Timestep,
  {556f257a-ac80-4250-be8c-7f06cd7447de}, !- Handle
  6;                                      !- Number of Timesteps per Hour

OS:ShadowCalculation,
  {4d1f8b83-ca8d-427f-a60b-a8fc9c13e1a4}, !- Handle
  20,                                     !- Calculation Frequency
  200;                                    !- Maximum Figures in Shadow Overlap Calculations

OS:SurfaceConvectionAlgorithm:Outside,
  {fdc85aad-6cd9-4913-bb24-1560120ea5a2}, !- Handle
  DOE-2;                                  !- Algorithm

OS:SurfaceConvectionAlgorithm:Inside,
  {a8001853-c7cc-4a0a-809b-2cbe197d29f6}, !- Handle
  TARP;                                   !- Algorithm

OS:ZoneCapacitanceMultiplier:ResearchSpecial,
  {6260cad6-7fb0-4707-a677-5a32b109fcc3}, !- Handle
  ,                                       !- Temperature Capacity Multiplier
  15,                                     !- Humidity Capacity Multiplier
  ;                                       !- Carbon Dioxide Capacity Multiplier

OS:RunPeriod,
  {9f550879-655b-479a-b65a-9e270a09c9b6}, !- Handle
  Run Period 1,                           !- Name
  1,                                      !- Begin Month
  1,                                      !- Begin Day of Month
  12,                                     !- End Month
  31,                                     !- End Day of Month
  ,                                       !- Use Weather File Holidays and Special Days
  ,                                       !- Use Weather File Daylight Saving Period
  ,                                       !- Apply Weekend Holiday Rule
  ,                                       !- Use Weather File Rain Indicators
  ,                                       !- Use Weather File Snow Indicators
  ;                                       !- Number of Times Runperiod to be Repeated

OS:YearDescription,
  {8d314c9b-fe89-46c3-ad7e-d83a34c755e1}, !- Handle
  2007,                                   !- Calendar Year
  ,                                       !- Day of Week for Start Day
  ;                                       !- Is Leap Year

OS:ThermalZone,
  {3c8e6a00-69ce-4c1c-ab06-069222d4f045}, !- Handle
  living zone,                            !- Name
  ,                                       !- Multiplier
  ,                                       !- Ceiling Height {m}
  ,                                       !- Volume {m3}
  ,                                       !- Floor Area {m2}
  ,                                       !- Zone Inside Convection Algorithm
  ,                                       !- Zone Outside Convection Algorithm
  ,                                       !- Zone Conditioning Equipment List Name
  {f0410f91-b9d3-48a2-a673-a20d3dea20a6}, !- Zone Air Inlet Port List
  {d6ff92e0-b473-4ca2-afb9-a9769a6e6007}, !- Zone Air Exhaust Port List
  {9a4e4441-6eb5-40c8-a856-839571a2bd55}, !- Zone Air Node Name
  {f73aa2a7-742b-4526-bfd4-e9d26729410b}, !- Zone Return Air Port List
  ,                                       !- Primary Daylighting Control Name
  ,                                       !- Fraction of Zone Controlled by Primary Daylighting Control
  ,                                       !- Secondary Daylighting Control Name
  ,                                       !- Fraction of Zone Controlled by Secondary Daylighting Control
  ,                                       !- Illuminance Map Name
  ,                                       !- Group Rendering Name
  ,                                       !- Thermostat Name
  No;                                     !- Use Ideal Air Loads

OS:Node,
  {919d1ee5-2f52-486c-973c-d71778117674}, !- Handle
  Node 1,                                 !- Name
  {9a4e4441-6eb5-40c8-a856-839571a2bd55}, !- Inlet Port
  ;                                       !- Outlet Port

OS:Connection,
  {9a4e4441-6eb5-40c8-a856-839571a2bd55}, !- Handle
  {781b2cbf-0236-4b9b-b20b-345d05daf3e8}, !- Name
  {3c8e6a00-69ce-4c1c-ab06-069222d4f045}, !- Source Object
  11,                                     !- Outlet Port
  {919d1ee5-2f52-486c-973c-d71778117674}, !- Target Object
  2;                                      !- Inlet Port

OS:PortList,
  {f0410f91-b9d3-48a2-a673-a20d3dea20a6}, !- Handle
  {7ed74cf7-a018-476d-9520-d7ae332b53e3}, !- Name
  {3c8e6a00-69ce-4c1c-ab06-069222d4f045}; !- HVAC Component

OS:PortList,
  {d6ff92e0-b473-4ca2-afb9-a9769a6e6007}, !- Handle
  {b4d71d5c-499b-458b-9207-bf3fc3c6bd0a}, !- Name
  {3c8e6a00-69ce-4c1c-ab06-069222d4f045}; !- HVAC Component

OS:PortList,
  {f73aa2a7-742b-4526-bfd4-e9d26729410b}, !- Handle
  {a27e163c-f85b-4d52-9955-f8a12448e056}, !- Name
  {3c8e6a00-69ce-4c1c-ab06-069222d4f045}; !- HVAC Component

OS:Sizing:Zone,
  {70209dd5-d941-4412-b0c3-8142ad654a1f}, !- Handle
  {3c8e6a00-69ce-4c1c-ab06-069222d4f045}, !- Zone or ZoneList Name
  SupplyAirTemperature,                   !- Zone Cooling Design Supply Air Temperature Input Method
  14,                                     !- Zone Cooling Design Supply Air Temperature {C}
  11.11,                                  !- Zone Cooling Design Supply Air Temperature Difference {deltaC}
  SupplyAirTemperature,                   !- Zone Heating Design Supply Air Temperature Input Method
  40,                                     !- Zone Heating Design Supply Air Temperature {C}
  11.11,                                  !- Zone Heating Design Supply Air Temperature Difference {deltaC}
  0.0085,                                 !- Zone Cooling Design Supply Air Humidity Ratio {kg-H2O/kg-air}
  0.008,                                  !- Zone Heating Design Supply Air Humidity Ratio {kg-H2O/kg-air}
  ,                                       !- Zone Heating Sizing Factor
  ,                                       !- Zone Cooling Sizing Factor
  DesignDay,                              !- Cooling Design Air Flow Method
  ,                                       !- Cooling Design Air Flow Rate {m3/s}
  ,                                       !- Cooling Minimum Air Flow per Zone Floor Area {m3/s-m2}
  ,                                       !- Cooling Minimum Air Flow {m3/s}
  ,                                       !- Cooling Minimum Air Flow Fraction
  DesignDay,                              !- Heating Design Air Flow Method
  ,                                       !- Heating Design Air Flow Rate {m3/s}
  ,                                       !- Heating Maximum Air Flow per Zone Floor Area {m3/s-m2}
  ,                                       !- Heating Maximum Air Flow {m3/s}
  ,                                       !- Heating Maximum Air Flow Fraction
  ,                                       !- Design Zone Air Distribution Effectiveness in Cooling Mode
  ,                                       !- Design Zone Air Distribution Effectiveness in Heating Mode
  No,                                     !- Account for Dedicated Outdoor Air System
  NeutralSupplyAir,                       !- Dedicated Outdoor Air System Control Strategy
  autosize,                               !- Dedicated Outdoor Air Low Setpoint Temperature for Design {C}
  autosize;                               !- Dedicated Outdoor Air High Setpoint Temperature for Design {C}

OS:ZoneHVAC:EquipmentList,
  {7f308f89-50c7-452e-83cb-5d5d0f653522}, !- Handle
  Zone HVAC Equipment List 1,             !- Name
  {3c8e6a00-69ce-4c1c-ab06-069222d4f045}; !- Thermal Zone

OS:ThermalZone,
  {abd3bb19-2465-4095-a4b4-2e61c251b3df}, !- Handle
  garage zone,                            !- Name
  ,                                       !- Multiplier
  ,                                       !- Ceiling Height {m}
  ,                                       !- Volume {m3}
  ,                                       !- Floor Area {m2}
  ,                                       !- Zone Inside Convection Algorithm
  ,                                       !- Zone Outside Convection Algorithm
  ,                                       !- Zone Conditioning Equipment List Name
  {bee22296-c058-49a0-b813-116cbbc97c52}, !- Zone Air Inlet Port List
  {b0255fff-08e2-4d05-bf51-b978ba54b1a9}, !- Zone Air Exhaust Port List
  {2ba7322b-64c1-46c0-8080-d87b0d51900a}, !- Zone Air Node Name
  {d2eb4341-59bc-4a7c-b1e8-5d1c1bfb7096}, !- Zone Return Air Port List
  ,                                       !- Primary Daylighting Control Name
  ,                                       !- Fraction of Zone Controlled by Primary Daylighting Control
  ,                                       !- Secondary Daylighting Control Name
  ,                                       !- Fraction of Zone Controlled by Secondary Daylighting Control
  ,                                       !- Illuminance Map Name
  ,                                       !- Group Rendering Name
  ,                                       !- Thermostat Name
  No;                                     !- Use Ideal Air Loads

OS:Node,
  {17d2ab93-3c39-43d8-a8f1-7bb2cf0b4970}, !- Handle
  Node 2,                                 !- Name
  {2ba7322b-64c1-46c0-8080-d87b0d51900a}, !- Inlet Port
  ;                                       !- Outlet Port

OS:Connection,
  {2ba7322b-64c1-46c0-8080-d87b0d51900a}, !- Handle
  {118cabb8-7013-456f-be41-4613c6e3057a}, !- Name
  {abd3bb19-2465-4095-a4b4-2e61c251b3df}, !- Source Object
  11,                                     !- Outlet Port
  {17d2ab93-3c39-43d8-a8f1-7bb2cf0b4970}, !- Target Object
  2;                                      !- Inlet Port

OS:PortList,
  {bee22296-c058-49a0-b813-116cbbc97c52}, !- Handle
  {35610826-b147-4cb7-8240-359a79e9bd49}, !- Name
  {abd3bb19-2465-4095-a4b4-2e61c251b3df}; !- HVAC Component

OS:PortList,
  {b0255fff-08e2-4d05-bf51-b978ba54b1a9}, !- Handle
  {3bbdb91a-62f0-4490-943c-d1ef61589461}, !- Name
  {abd3bb19-2465-4095-a4b4-2e61c251b3df}; !- HVAC Component

OS:PortList,
  {d2eb4341-59bc-4a7c-b1e8-5d1c1bfb7096}, !- Handle
  {b2adc901-e56f-42c5-bf13-d8e241946b56}, !- Name
  {abd3bb19-2465-4095-a4b4-2e61c251b3df}; !- HVAC Component

OS:Sizing:Zone,
  {c007c7b0-0b01-4f04-9625-8765e23b77e0}, !- Handle
  {abd3bb19-2465-4095-a4b4-2e61c251b3df}, !- Zone or ZoneList Name
  SupplyAirTemperature,                   !- Zone Cooling Design Supply Air Temperature Input Method
  14,                                     !- Zone Cooling Design Supply Air Temperature {C}
  11.11,                                  !- Zone Cooling Design Supply Air Temperature Difference {deltaC}
  SupplyAirTemperature,                   !- Zone Heating Design Supply Air Temperature Input Method
  40,                                     !- Zone Heating Design Supply Air Temperature {C}
  11.11,                                  !- Zone Heating Design Supply Air Temperature Difference {deltaC}
  0.0085,                                 !- Zone Cooling Design Supply Air Humidity Ratio {kg-H2O/kg-air}
  0.008,                                  !- Zone Heating Design Supply Air Humidity Ratio {kg-H2O/kg-air}
  ,                                       !- Zone Heating Sizing Factor
  ,                                       !- Zone Cooling Sizing Factor
  DesignDay,                              !- Cooling Design Air Flow Method
  ,                                       !- Cooling Design Air Flow Rate {m3/s}
  ,                                       !- Cooling Minimum Air Flow per Zone Floor Area {m3/s-m2}
  ,                                       !- Cooling Minimum Air Flow {m3/s}
  ,                                       !- Cooling Minimum Air Flow Fraction
  DesignDay,                              !- Heating Design Air Flow Method
  ,                                       !- Heating Design Air Flow Rate {m3/s}
  ,                                       !- Heating Maximum Air Flow per Zone Floor Area {m3/s-m2}
  ,                                       !- Heating Maximum Air Flow {m3/s}
  ,                                       !- Heating Maximum Air Flow Fraction
  ,                                       !- Design Zone Air Distribution Effectiveness in Cooling Mode
  ,                                       !- Design Zone Air Distribution Effectiveness in Heating Mode
  No,                                     !- Account for Dedicated Outdoor Air System
  NeutralSupplyAir,                       !- Dedicated Outdoor Air System Control Strategy
  autosize,                               !- Dedicated Outdoor Air Low Setpoint Temperature for Design {C}
  autosize;                               !- Dedicated Outdoor Air High Setpoint Temperature for Design {C}

OS:ZoneHVAC:EquipmentList,
  {2e438854-626a-480b-993a-afe64c27321f}, !- Handle
  Zone HVAC Equipment List 2,             !- Name
  {abd3bb19-2465-4095-a4b4-2e61c251b3df}; !- Thermal Zone

OS:Space,
  {d7c448e4-1952-4f64-9795-acda768f695b}, !- Handle
  garage space,                           !- Name
  {18371992-c2d9-4cca-bf7c-826e10dab21c}, !- Space Type Name
  ,                                       !- Default Construction Set Name
  ,                                       !- Default Schedule Set Name
  -0,                                     !- Direction of Relative North {deg}
  0,                                      !- X Origin {m}
  0,                                      !- Y Origin {m}
  0,                                      !- Z Origin {m}
  ,                                       !- Building Story Name
  {abd3bb19-2465-4095-a4b4-2e61c251b3df}; !- Thermal Zone Name

OS:Surface,
  {b6c070ca-d831-400f-8fc3-d601a9402427}, !- Handle
  Surface 1,                              !- Name
  Floor,                                  !- Surface Type
  ,                                       !- Construction Name
  {d7c448e4-1952-4f64-9795-acda768f695b}, !- Space Name
  Foundation,                             !- Outside Boundary Condition
  ,                                       !- Outside Boundary Condition Object
  NoSun,                                  !- Sun Exposure
  NoWind,                                 !- Wind Exposure
  ,                                       !- View Factor to Ground
  ,                                       !- Number of Vertices
  8.83608947200625, 0, 0,                 !- X,Y,Z Vertex 1 {m}
  8.83608947200625, 6.096, 0,             !- X,Y,Z Vertex 2 {m}
  14.9320894720063, 6.096, 0,             !- X,Y,Z Vertex 3 {m}
  14.9320894720063, 0, 0;                 !- X,Y,Z Vertex 4 {m}

OS:Surface,
  {8ccd0519-20a5-4608-8eca-43c16dff48f3}, !- Handle
  Surface 2,                              !- Name
  Wall,                                   !- Surface Type
  ,                                       !- Construction Name
  {d7c448e4-1952-4f64-9795-acda768f695b}, !- Space Name
  Surface,                                !- Outside Boundary Condition
  {d8bad2b2-53bf-404d-8ded-178b3018f3d2}, !- Outside Boundary Condition Object
  NoSun,                                  !- Sun Exposure
  NoWind,                                 !- Wind Exposure
  ,                                       !- View Factor to Ground
  ,                                       !- Number of Vertices
  8.83608947200625, 6.096, 2.4384,        !- X,Y,Z Vertex 1 {m}
  8.83608947200625, 6.096, 0,             !- X,Y,Z Vertex 2 {m}
  8.83608947200625, 0, 0,                 !- X,Y,Z Vertex 3 {m}
  8.83608947200625, 0, 2.4384;            !- X,Y,Z Vertex 4 {m}

OS:Surface,
  {b9c2cc6e-1154-470f-8d46-6b1ebe882bb1}, !- Handle
  Surface 3,                              !- Name
  Wall,                                   !- Surface Type
  ,                                       !- Construction Name
  {d7c448e4-1952-4f64-9795-acda768f695b}, !- Space Name
  Surface,                                !- Outside Boundary Condition
  {870a068b-689e-40af-9117-6645f49faddc}, !- Outside Boundary Condition Object
  NoSun,                                  !- Sun Exposure
  NoWind,                                 !- Wind Exposure
  ,                                       !- View Factor to Ground
  ,                                       !- Number of Vertices
  14.9320894720063, 6.096, 2.4384,        !- X,Y,Z Vertex 1 {m}
  14.9320894720063, 6.096, 0,             !- X,Y,Z Vertex 2 {m}
  8.83608947200625, 6.096, 0,             !- X,Y,Z Vertex 3 {m}
  8.83608947200625, 6.096, 2.4384;        !- X,Y,Z Vertex 4 {m}

OS:Surface,
  {f8561b23-3cce-4bdb-8ca7-54d2e3c9af18}, !- Handle
  Surface 4,                              !- Name
  Wall,                                   !- Surface Type
  ,                                       !- Construction Name
  {d7c448e4-1952-4f64-9795-acda768f695b}, !- Space Name
  Outdoors,                               !- Outside Boundary Condition
  ,                                       !- Outside Boundary Condition Object
  SunExposed,                             !- Sun Exposure
  WindExposed,                            !- Wind Exposure
  ,                                       !- View Factor to Ground
  ,                                       !- Number of Vertices
  14.9320894720063, 0, 2.4384,            !- X,Y,Z Vertex 1 {m}
  14.9320894720063, 0, 0,                 !- X,Y,Z Vertex 2 {m}
  14.9320894720063, 6.096, 0,             !- X,Y,Z Vertex 3 {m}
  14.9320894720063, 6.096, 2.4384;        !- X,Y,Z Vertex 4 {m}

OS:Surface,
  {e7cdf59d-7d9c-44d6-b763-b65226d9cf45}, !- Handle
  Surface 5,                              !- Name
  Wall,                                   !- Surface Type
  ,                                       !- Construction Name
  {d7c448e4-1952-4f64-9795-acda768f695b}, !- Space Name
  Outdoors,                               !- Outside Boundary Condition
  ,                                       !- Outside Boundary Condition Object
  SunExposed,                             !- Sun Exposure
  WindExposed,                            !- Wind Exposure
  ,                                       !- View Factor to Ground
  ,                                       !- Number of Vertices
  8.83608947200625, 0, 2.4384,            !- X,Y,Z Vertex 1 {m}
  8.83608947200625, 0, 0,                 !- X,Y,Z Vertex 2 {m}
  14.9320894720063, 0, 0,                 !- X,Y,Z Vertex 3 {m}
  14.9320894720063, 0, 2.4384;            !- X,Y,Z Vertex 4 {m}

OS:Surface,
  {a1240e48-5a26-4968-8fd1-cf6abf3e7928}, !- Handle
  Surface 6,                              !- Name
  RoofCeiling,                            !- Surface Type
  ,                                       !- Construction Name
  {d7c448e4-1952-4f64-9795-acda768f695b}, !- Space Name
  Surface,                                !- Outside Boundary Condition
  {34e26a9b-a040-45ac-aeeb-0a5267909499}, !- Outside Boundary Condition Object
  NoSun,                                  !- Sun Exposure
  NoWind,                                 !- Wind Exposure
  ,                                       !- View Factor to Ground
  ,                                       !- Number of Vertices
  14.9320894720063, 0, 2.4384,            !- X,Y,Z Vertex 1 {m}
  14.9320894720063, 6.096, 2.4384,        !- X,Y,Z Vertex 2 {m}
  8.83608947200625, 6.096, 2.4384,        !- X,Y,Z Vertex 3 {m}
  8.83608947200625, 0, 2.4384;            !- X,Y,Z Vertex 4 {m}

OS:SpaceType,
  {18371992-c2d9-4cca-bf7c-826e10dab21c}, !- Handle
  Space Type 1,                           !- Name
  ,                                       !- Default Construction Set Name
  ,                                       !- Default Schedule Set Name
  ,                                       !- Group Rendering Name
  ,                                       !- Design Specification Outdoor Air Object Name
  ,                                       !- Standards Template
  ,                                       !- Standards Building Type
  garage;                                 !- Standards Space Type

OS:Space,
  {57437bfc-b4e1-45a7-8b47-d2561dae87a7}, !- Handle
  living space,                           !- Name
  {99b3bf97-c068-4893-b189-b67dec8a08a0}, !- Space Type Name
  ,                                       !- Default Construction Set Name
  ,                                       !- Default Schedule Set Name
  -0,                                     !- Direction of Relative North {deg}
  0,                                      !- X Origin {m}
  0,                                      !- Y Origin {m}
  0,                                      !- Z Origin {m}
  ,                                       !- Building Story Name
  {3c8e6a00-69ce-4c1c-ab06-069222d4f045}, !- Thermal Zone Name
  ,                                       !- Part of Total Floor Area
  ,                                       !- Design Specification Outdoor Air Object Name
  {2ccbb3c2-084f-4ddc-8887-bb88ee50ccc4}; !- Building Unit Name

OS:Surface,
  {945fa86a-c383-4653-bfd0-dc60d986ee37}, !- Handle
  Surface 7,                              !- Name
  Floor,                                  !- Surface Type
  ,                                       !- Construction Name
  {57437bfc-b4e1-45a7-8b47-d2561dae87a7}, !- Space Name
  Surface,                                !- Outside Boundary Condition
  {5414a74f-825b-4f01-9cb6-35b7b8f56798}, !- Outside Boundary Condition Object
  NoSun,                                  !- Sun Exposure
  NoWind,                                 !- Wind Exposure
  ,                                       !- View Factor to Ground
  ,                                       !- Number of Vertices
  0, 0, 0,                                !- X,Y,Z Vertex 1 {m}
  0, 7.46604473600313, 0,                 !- X,Y,Z Vertex 2 {m}
  14.9320894720063, 7.46604473600313, 0,  !- X,Y,Z Vertex 3 {m}
  14.9320894720063, 6.096, 0,             !- X,Y,Z Vertex 4 {m}
  8.83608947200625, 6.096, 0,             !- X,Y,Z Vertex 5 {m}
  8.83608947200625, 0, 0;                 !- X,Y,Z Vertex 6 {m}

OS:Surface,
  {ba6a23a7-deb7-46b5-b44e-98fa80861cb1}, !- Handle
  Surface 8,                              !- Name
  Wall,                                   !- Surface Type
  ,                                       !- Construction Name
  {57437bfc-b4e1-45a7-8b47-d2561dae87a7}, !- Space Name
  Outdoors,                               !- Outside Boundary Condition
  ,                                       !- Outside Boundary Condition Object
  SunExposed,                             !- Sun Exposure
  WindExposed,                            !- Wind Exposure
  ,                                       !- View Factor to Ground
  ,                                       !- Number of Vertices
  0, 7.46604473600313, 2.4384,            !- X,Y,Z Vertex 1 {m}
  0, 7.46604473600313, 0,                 !- X,Y,Z Vertex 2 {m}
  0, 0, 0,                                !- X,Y,Z Vertex 3 {m}
  0, 0, 2.4384;                           !- X,Y,Z Vertex 4 {m}

OS:Surface,
  {cb255966-8d7e-4f9a-a74a-32fcdf235d1c}, !- Handle
  Surface 9,                              !- Name
  Wall,                                   !- Surface Type
  ,                                       !- Construction Name
  {57437bfc-b4e1-45a7-8b47-d2561dae87a7}, !- Space Name
  Outdoors,                               !- Outside Boundary Condition
  ,                                       !- Outside Boundary Condition Object
  SunExposed,                             !- Sun Exposure
  WindExposed,                            !- Wind Exposure
  ,                                       !- View Factor to Ground
  ,                                       !- Number of Vertices
  14.9320894720063, 7.46604473600313, 2.4384, !- X,Y,Z Vertex 1 {m}
  14.9320894720063, 7.46604473600313, 0,  !- X,Y,Z Vertex 2 {m}
  0, 7.46604473600313, 0,                 !- X,Y,Z Vertex 3 {m}
  0, 7.46604473600313, 2.4384;            !- X,Y,Z Vertex 4 {m}

OS:Surface,
  {5e528876-5fb4-4c03-af6d-4bef3ac54363}, !- Handle
  Surface 10,                             !- Name
  Wall,                                   !- Surface Type
  ,                                       !- Construction Name
  {57437bfc-b4e1-45a7-8b47-d2561dae87a7}, !- Space Name
  Outdoors,                               !- Outside Boundary Condition
  ,                                       !- Outside Boundary Condition Object
  SunExposed,                             !- Sun Exposure
  WindExposed,                            !- Wind Exposure
  ,                                       !- View Factor to Ground
  ,                                       !- Number of Vertices
  14.9320894720063, 6.096, 2.4384,        !- X,Y,Z Vertex 1 {m}
  14.9320894720063, 6.096, 0,             !- X,Y,Z Vertex 2 {m}
  14.9320894720063, 7.46604473600313, 0,  !- X,Y,Z Vertex 3 {m}
  14.9320894720063, 7.46604473600313, 2.4384; !- X,Y,Z Vertex 4 {m}

OS:Surface,
  {870a068b-689e-40af-9117-6645f49faddc}, !- Handle
  Surface 11,                             !- Name
  Wall,                                   !- Surface Type
  ,                                       !- Construction Name
  {57437bfc-b4e1-45a7-8b47-d2561dae87a7}, !- Space Name
  Surface,                                !- Outside Boundary Condition
  {b9c2cc6e-1154-470f-8d46-6b1ebe882bb1}, !- Outside Boundary Condition Object
  NoSun,                                  !- Sun Exposure
  NoWind,                                 !- Wind Exposure
  ,                                       !- View Factor to Ground
  ,                                       !- Number of Vertices
  8.83608947200625, 6.096, 2.4384,        !- X,Y,Z Vertex 1 {m}
  8.83608947200625, 6.096, 0,             !- X,Y,Z Vertex 2 {m}
  14.9320894720063, 6.096, 0,             !- X,Y,Z Vertex 3 {m}
  14.9320894720063, 6.096, 2.4384;        !- X,Y,Z Vertex 4 {m}

OS:Surface,
  {d8bad2b2-53bf-404d-8ded-178b3018f3d2}, !- Handle
  Surface 12,                             !- Name
  Wall,                                   !- Surface Type
  ,                                       !- Construction Name
  {57437bfc-b4e1-45a7-8b47-d2561dae87a7}, !- Space Name
  Surface,                                !- Outside Boundary Condition
  {8ccd0519-20a5-4608-8eca-43c16dff48f3}, !- Outside Boundary Condition Object
  NoSun,                                  !- Sun Exposure
  NoWind,                                 !- Wind Exposure
  ,                                       !- View Factor to Ground
  ,                                       !- Number of Vertices
  8.83608947200625, 0, 2.4384,            !- X,Y,Z Vertex 1 {m}
  8.83608947200625, 0, 0,                 !- X,Y,Z Vertex 2 {m}
  8.83608947200625, 6.096, 0,             !- X,Y,Z Vertex 3 {m}
  8.83608947200625, 6.096, 2.4384;        !- X,Y,Z Vertex 4 {m}

OS:Surface,
  {d6b0d8d9-34b2-403d-bd08-0def3d30cfc9}, !- Handle
  Surface 13,                             !- Name
  Wall,                                   !- Surface Type
  ,                                       !- Construction Name
  {57437bfc-b4e1-45a7-8b47-d2561dae87a7}, !- Space Name
  Outdoors,                               !- Outside Boundary Condition
  ,                                       !- Outside Boundary Condition Object
  SunExposed,                             !- Sun Exposure
  WindExposed,                            !- Wind Exposure
  ,                                       !- View Factor to Ground
  ,                                       !- Number of Vertices
  0, 0, 2.4384,                           !- X,Y,Z Vertex 1 {m}
  0, 0, 0,                                !- X,Y,Z Vertex 2 {m}
  8.83608947200625, 0, 0,                 !- X,Y,Z Vertex 3 {m}
  8.83608947200625, 0, 2.4384;            !- X,Y,Z Vertex 4 {m}

OS:Surface,
  {26bb7c23-9b66-4a66-99c5-0369d9e658ab}, !- Handle
  Surface 14,                             !- Name
  RoofCeiling,                            !- Surface Type
  ,                                       !- Construction Name
  {57437bfc-b4e1-45a7-8b47-d2561dae87a7}, !- Space Name
  Surface,                                !- Outside Boundary Condition
  {ddc350f2-55b7-4205-add5-728e4ae0dc8f}, !- Outside Boundary Condition Object
  NoSun,                                  !- Sun Exposure
  NoWind,                                 !- Wind Exposure
  ,                                       !- View Factor to Ground
  ,                                       !- Number of Vertices
  8.83608947200625, 0, 2.4384,            !- X,Y,Z Vertex 1 {m}
  8.83608947200625, 6.096, 2.4384,        !- X,Y,Z Vertex 2 {m}
  14.9320894720063, 6.096, 2.4384,        !- X,Y,Z Vertex 3 {m}
  14.9320894720063, 7.46604473600313, 2.4384, !- X,Y,Z Vertex 4 {m}
  0, 7.46604473600313, 2.4384,            !- X,Y,Z Vertex 5 {m}
  0, 0, 2.4384;                           !- X,Y,Z Vertex 6 {m}

OS:SpaceType,
  {99b3bf97-c068-4893-b189-b67dec8a08a0}, !- Handle
  Space Type 2,                           !- Name
  ,                                       !- Default Construction Set Name
  ,                                       !- Default Schedule Set Name
  ,                                       !- Group Rendering Name
  ,                                       !- Design Specification Outdoor Air Object Name
  ,                                       !- Standards Template
  ,                                       !- Standards Building Type
  living;                                 !- Standards Space Type

OS:Space,
  {ada562ba-4071-4ed9-84ec-fffc03d209b9}, !- Handle
  living space|story 2,                   !- Name
  {99b3bf97-c068-4893-b189-b67dec8a08a0}, !- Space Type Name
  ,                                       !- Default Construction Set Name