!- NOTE: Auto-generated from /test/osw_files/SFD_2000sqft_2story_FB_GRG_UA_3Beds_2Baths_Denver_South_GasWHTank.osw

OS:Version,
  {d3adaea0-8f1b-4f98-be10-ac44fe44925f}, !- Handle
  2.9.0;                                  !- Version Identifier

OS:SimulationControl,
  {bbee068f-17f1-4f1e-a482-df70c7c5c861}, !- Handle
  ,                                       !- Do Zone Sizing Calculation
  ,                                       !- Do System Sizing Calculation
  ,                                       !- Do Plant Sizing Calculation
  No;                                     !- Run Simulation for Sizing Periods

OS:Timestep,
  {213bc481-06b3-4807-b04c-e7aab0c0a939}, !- Handle
  6;                                      !- Number of Timesteps per Hour

OS:ShadowCalculation,
  {4e63f430-afc5-4d18-8a95-cfaee733df32}, !- Handle
  20,                                     !- Calculation Frequency
  200;                                    !- Maximum Figures in Shadow Overlap Calculations

OS:SurfaceConvectionAlgorithm:Outside,
  {c902dfc3-1cb6-4e2f-8b9e-919a18e014ed}, !- Handle
  DOE-2;                                  !- Algorithm

OS:SurfaceConvectionAlgorithm:Inside,
  {12125a62-c9aa-4d4e-aec2-834157d77a16}, !- Handle
  TARP;                                   !- Algorithm

OS:ZoneCapacitanceMultiplier:ResearchSpecial,
  {089f13ba-305d-4d1c-9b6f-2ea41c0e5049}, !- Handle
  ,                                       !- Temperature Capacity Multiplier
  15,                                     !- Humidity Capacity Multiplier
  ;                                       !- Carbon Dioxide Capacity Multiplier

OS:RunPeriod,
  {aa7a3868-54ac-41c0-9b5a-4016ecc89c56}, !- Handle
  Run Period 1,                           !- Name
  1,                                      !- Begin Month
  1,                                      !- Begin Day of Month
  12,                                     !- End Month
  31,                                     !- End Day of Month
  ,                                       !- Use Weather File Holidays and Special Days
  ,                                       !- Use Weather File Daylight Saving Period
  ,                                       !- Apply Weekend Holiday Rule
  ,                                       !- Use Weather File Rain Indicators
  ,                                       !- Use Weather File Snow Indicators
  ;                                       !- Number of Times Runperiod to be Repeated

OS:YearDescription,
  {c8216e05-861c-4ec2-8db1-1f11e85db85e}, !- Handle
  2007,                                   !- Calendar Year
  ,                                       !- Day of Week for Start Day
  ;                                       !- Is Leap Year

OS:ThermalZone,
  {bb024a31-9f89-43ff-9641-2fb68e02a830}, !- Handle
  living zone,                            !- Name
  ,                                       !- Multiplier
  ,                                       !- Ceiling Height {m}
  ,                                       !- Volume {m3}
  ,                                       !- Floor Area {m2}
  ,                                       !- Zone Inside Convection Algorithm
  ,                                       !- Zone Outside Convection Algorithm
  ,                                       !- Zone Conditioning Equipment List Name
  {10a0bb55-2ae8-42dd-8b71-76388ddba1b8}, !- Zone Air Inlet Port List
  {f8f1a4ad-3cb3-451a-9575-582776d529ce}, !- Zone Air Exhaust Port List
  {6036d61a-d638-4d35-bdbb-1ad45511c101}, !- Zone Air Node Name
  {6c2c0f57-4d3d-4ac5-9c85-6d6810f9a7ee}, !- Zone Return Air Port List
  ,                                       !- Primary Daylighting Control Name
  ,                                       !- Fraction of Zone Controlled by Primary Daylighting Control
  ,                                       !- Secondary Daylighting Control Name
  ,                                       !- Fraction of Zone Controlled by Secondary Daylighting Control
  ,                                       !- Illuminance Map Name
  ,                                       !- Group Rendering Name
  ,                                       !- Thermostat Name
  No;                                     !- Use Ideal Air Loads

OS:Node,
  {d8606d87-d1f8-49ca-a992-756600bf1b3c}, !- Handle
  Node 1,                                 !- Name
  {6036d61a-d638-4d35-bdbb-1ad45511c101}, !- Inlet Port
  ;                                       !- Outlet Port

OS:Connection,
  {6036d61a-d638-4d35-bdbb-1ad45511c101}, !- Handle
  {03d2826c-8283-4ae7-9f0d-ef64884ffc7e}, !- Name
  {bb024a31-9f89-43ff-9641-2fb68e02a830}, !- Source Object
  11,                                     !- Outlet Port
  {d8606d87-d1f8-49ca-a992-756600bf1b3c}, !- Target Object
  2;                                      !- Inlet Port

OS:PortList,
  {10a0bb55-2ae8-42dd-8b71-76388ddba1b8}, !- Handle
  {90b6fbf2-fe38-4e86-a4c9-c7430cba8f1e}, !- Name
  {bb024a31-9f89-43ff-9641-2fb68e02a830}; !- HVAC Component

OS:PortList,
  {f8f1a4ad-3cb3-451a-9575-582776d529ce}, !- Handle
  {62ab5aae-a0d3-4bd0-abc6-a1797b22a97c}, !- Name
  {bb024a31-9f89-43ff-9641-2fb68e02a830}; !- HVAC Component

OS:PortList,
  {6c2c0f57-4d3d-4ac5-9c85-6d6810f9a7ee}, !- Handle
  {e1fb52ee-9546-4534-837d-345f23989ce4}, !- Name
  {bb024a31-9f89-43ff-9641-2fb68e02a830}; !- HVAC Component

OS:Sizing:Zone,
  {323c2fc9-2fb0-4c7d-8f1c-be701e3369c6}, !- Handle
  {bb024a31-9f89-43ff-9641-2fb68e02a830}, !- Zone or ZoneList Name
  SupplyAirTemperature,                   !- Zone Cooling Design Supply Air Temperature Input Method
  14,                                     !- Zone Cooling Design Supply Air Temperature {C}
  11.11,                                  !- Zone Cooling Design Supply Air Temperature Difference {deltaC}
  SupplyAirTemperature,                   !- Zone Heating Design Supply Air Temperature Input Method
  40,                                     !- Zone Heating Design Supply Air Temperature {C}
  11.11,                                  !- Zone Heating Design Supply Air Temperature Difference {deltaC}
  0.0085,                                 !- Zone Cooling Design Supply Air Humidity Ratio {kg-H2O/kg-air}
  0.008,                                  !- Zone Heating Design Supply Air Humidity Ratio {kg-H2O/kg-air}
  ,                                       !- Zone Heating Sizing Factor
  ,                                       !- Zone Cooling Sizing Factor
  DesignDay,                              !- Cooling Design Air Flow Method
  ,                                       !- Cooling Design Air Flow Rate {m3/s}
  ,                                       !- Cooling Minimum Air Flow per Zone Floor Area {m3/s-m2}
  ,                                       !- Cooling Minimum Air Flow {m3/s}
  ,                                       !- Cooling Minimum Air Flow Fraction
  DesignDay,                              !- Heating Design Air Flow Method
  ,                                       !- Heating Design Air Flow Rate {m3/s}
  ,                                       !- Heating Maximum Air Flow per Zone Floor Area {m3/s-m2}
  ,                                       !- Heating Maximum Air Flow {m3/s}
  ,                                       !- Heating Maximum Air Flow Fraction
  ,                                       !- Design Zone Air Distribution Effectiveness in Cooling Mode
  ,                                       !- Design Zone Air Distribution Effectiveness in Heating Mode
  No,                                     !- Account for Dedicated Outdoor Air System
  NeutralSupplyAir,                       !- Dedicated Outdoor Air System Control Strategy
  autosize,                               !- Dedicated Outdoor Air Low Setpoint Temperature for Design {C}
  autosize;                               !- Dedicated Outdoor Air High Setpoint Temperature for Design {C}

OS:ZoneHVAC:EquipmentList,
  {bd3f04b4-37b0-4c28-8f34-502c2bf2155c}, !- Handle
  Zone HVAC Equipment List 1,             !- Name
  {bb024a31-9f89-43ff-9641-2fb68e02a830}; !- Thermal Zone

OS:ThermalZone,
  {30e19902-4df3-4065-b8e0-c34eee7ab670}, !- Handle
  garage zone,                            !- Name
  ,                                       !- Multiplier
  ,                                       !- Ceiling Height {m}
  ,                                       !- Volume {m3}
  ,                                       !- Floor Area {m2}
  ,                                       !- Zone Inside Convection Algorithm
  ,                                       !- Zone Outside Convection Algorithm
  ,                                       !- Zone Conditioning Equipment List Name
  {d4e998d0-8136-4460-b245-59563657f059}, !- Zone Air Inlet Port List
  {22e67447-4132-4e71-88dd-667e40924e98}, !- Zone Air Exhaust Port List
  {d3cb7964-4ab7-4ccf-800a-604fb8e3f503}, !- Zone Air Node Name
  {e56b83c4-484b-4f3d-82f8-1e837d07b0c7}, !- Zone Return Air Port List
  ,                                       !- Primary Daylighting Control Name
  ,                                       !- Fraction of Zone Controlled by Primary Daylighting Control
  ,                                       !- Secondary Daylighting Control Name
  ,                                       !- Fraction of Zone Controlled by Secondary Daylighting Control
  ,                                       !- Illuminance Map Name
  ,                                       !- Group Rendering Name
  ,                                       !- Thermostat Name
  No;                                     !- Use Ideal Air Loads

OS:Node,
  {53adb489-cdd6-4525-9aa3-dc5763d4c540}, !- Handle
  Node 2,                                 !- Name
  {d3cb7964-4ab7-4ccf-800a-604fb8e3f503}, !- Inlet Port
  ;                                       !- Outlet Port

OS:Connection,
  {d3cb7964-4ab7-4ccf-800a-604fb8e3f503}, !- Handle
  {88758b9d-e5b2-4ca2-a2b8-b5a0e3d3f2f3}, !- Name
  {30e19902-4df3-4065-b8e0-c34eee7ab670}, !- Source Object
  11,                                     !- Outlet Port
  {53adb489-cdd6-4525-9aa3-dc5763d4c540}, !- Target Object
  2;                                      !- Inlet Port

OS:PortList,
  {d4e998d0-8136-4460-b245-59563657f059}, !- Handle
  {35ea0eef-df81-49d9-8c98-a07c907effb5}, !- Name
  {30e19902-4df3-4065-b8e0-c34eee7ab670}; !- HVAC Component

OS:PortList,
  {22e67447-4132-4e71-88dd-667e40924e98}, !- Handle
  {325cc194-75c3-4611-9812-3ea6fb6ee1ef}, !- Name
  {30e19902-4df3-4065-b8e0-c34eee7ab670}; !- HVAC Component

OS:PortList,
  {e56b83c4-484b-4f3d-82f8-1e837d07b0c7}, !- Handle
  {56c91c9d-6ffa-444e-a38e-e87e5fc383d8}, !- Name
  {30e19902-4df3-4065-b8e0-c34eee7ab670}; !- HVAC Component

OS:Sizing:Zone,
  {fdb8e508-2541-49ce-9ec0-a239ed38a403}, !- Handle
  {30e19902-4df3-4065-b8e0-c34eee7ab670}, !- Zone or ZoneList Name
  SupplyAirTemperature,                   !- Zone Cooling Design Supply Air Temperature Input Method
  14,                                     !- Zone Cooling Design Supply Air Temperature {C}
  11.11,                                  !- Zone Cooling Design Supply Air Temperature Difference {deltaC}
  SupplyAirTemperature,                   !- Zone Heating Design Supply Air Temperature Input Method
  40,                                     !- Zone Heating Design Supply Air Temperature {C}
  11.11,                                  !- Zone Heating Design Supply Air Temperature Difference {deltaC}
  0.0085,                                 !- Zone Cooling Design Supply Air Humidity Ratio {kg-H2O/kg-air}
  0.008,                                  !- Zone Heating Design Supply Air Humidity Ratio {kg-H2O/kg-air}
  ,                                       !- Zone Heating Sizing Factor
  ,                                       !- Zone Cooling Sizing Factor
  DesignDay,                              !- Cooling Design Air Flow Method
  ,                                       !- Cooling Design Air Flow Rate {m3/s}
  ,                                       !- Cooling Minimum Air Flow per Zone Floor Area {m3/s-m2}
  ,                                       !- Cooling Minimum Air Flow {m3/s}
  ,                                       !- Cooling Minimum Air Flow Fraction
  DesignDay,                              !- Heating Design Air Flow Method
  ,                                       !- Heating Design Air Flow Rate {m3/s}
  ,                                       !- Heating Maximum Air Flow per Zone Floor Area {m3/s-m2}
  ,                                       !- Heating Maximum Air Flow {m3/s}
  ,                                       !- Heating Maximum Air Flow Fraction
  ,                                       !- Design Zone Air Distribution Effectiveness in Cooling Mode
  ,                                       !- Design Zone Air Distribution Effectiveness in Heating Mode
  No,                                     !- Account for Dedicated Outdoor Air System
  NeutralSupplyAir,                       !- Dedicated Outdoor Air System Control Strategy
  autosize,                               !- Dedicated Outdoor Air Low Setpoint Temperature for Design {C}
  autosize;                               !- Dedicated Outdoor Air High Setpoint Temperature for Design {C}

OS:ZoneHVAC:EquipmentList,
  {df8e12c5-06d8-4ad3-b9af-001abef51b2e}, !- Handle
  Zone HVAC Equipment List 2,             !- Name
  {30e19902-4df3-4065-b8e0-c34eee7ab670}; !- Thermal Zone

OS:Space,
  {142f8769-de00-4efd-8a41-4b351477e6da}, !- Handle
  garage space,                           !- Name
  {90538b21-e668-45fd-a40f-582cdc38372c}, !- Space Type Name
  ,                                       !- Default Construction Set Name
  ,                                       !- Default Schedule Set Name
  -0,                                     !- Direction of Relative North {deg}
  0,                                      !- X Origin {m}
  0,                                      !- Y Origin {m}
  0,                                      !- Z Origin {m}
  ,                                       !- Building Story Name
  {30e19902-4df3-4065-b8e0-c34eee7ab670}; !- Thermal Zone Name

OS:Surface,
  {48067ad5-0823-42e0-b1fc-97ee418b2492}, !- Handle
  Surface 1,                              !- Name
  Floor,                                  !- Surface Type
  ,                                       !- Construction Name
  {142f8769-de00-4efd-8a41-4b351477e6da}, !- Space Name
  Foundation,                             !- Outside Boundary Condition
  ,                                       !- Outside Boundary Condition Object
  NoSun,                                  !- Sun Exposure
  NoWind,                                 !- Wind Exposure
  ,                                       !- View Factor to Ground
  ,                                       !- Number of Vertices
  5.57695129776527, -3.048, 0,            !- X,Y,Z Vertex 1 {m}
  5.57695129776527, 3.048, 0,             !- X,Y,Z Vertex 2 {m}
  11.6729512977653, 3.048, 0,             !- X,Y,Z Vertex 3 {m}
  11.6729512977653, -3.048, 0;            !- X,Y,Z Vertex 4 {m}

OS:Surface,
  {d39a8b40-5774-4ea2-ad66-a0080727ecf3}, !- Handle
  Surface 2,                              !- Name
  Wall,                                   !- Surface Type
  ,                                       !- Construction Name
  {142f8769-de00-4efd-8a41-4b351477e6da}, !- Space Name
  Surface,                                !- Outside Boundary Condition
  {fa3a5ff7-5e31-44ea-a093-a39060b0a521}, !- Outside Boundary Condition Object
  NoSun,                                  !- Sun Exposure
  NoWind,                                 !- Wind Exposure
  ,                                       !- View Factor to Ground
  ,                                       !- Number of Vertices
  5.57695129776527, 3.048, 2.4384,        !- X,Y,Z Vertex 1 {m}
  5.57695129776527, 3.048, 0,             !- X,Y,Z Vertex 2 {m}
  5.57695129776527, 0, 0,                 !- X,Y,Z Vertex 3 {m}
  5.57695129776527, 0, 2.4384;            !- X,Y,Z Vertex 4 {m}

OS:Surface,
  {dc904f64-0776-4db4-9148-071ceaeecf2e}, !- Handle
  Surface 3,                              !- Name
  Wall,                                   !- Surface Type
  ,                                       !- Construction Name
  {142f8769-de00-4efd-8a41-4b351477e6da}, !- Space Name
  Surface,                                !- Outside Boundary Condition
  {a29db567-1627-40f0-89b8-b4f40441eb56}, !- Outside Boundary Condition Object
  NoSun,                                  !- Sun Exposure
  NoWind,                                 !- Wind Exposure
  ,                                       !- View Factor to Ground
  ,                                       !- Number of Vertices
  11.6729512977653, 3.048, 2.4384,        !- X,Y,Z Vertex 1 {m}
  11.6729512977653, 3.048, 0,             !- X,Y,Z Vertex 2 {m}
  5.57695129776527, 3.048, 0,             !- X,Y,Z Vertex 3 {m}
  5.57695129776527, 3.048, 2.4384;        !- X,Y,Z Vertex 4 {m}

OS:Surface,
  {3bfaa73d-fde3-48c2-b883-761717722a7d}, !- Handle
  Surface 4,                              !- Name
  Wall,                                   !- Surface Type
  ,                                       !- Construction Name
  {142f8769-de00-4efd-8a41-4b351477e6da}, !- Space Name
  Outdoors,                               !- Outside Boundary Condition
  ,                                       !- Outside Boundary Condition Object
  SunExposed,                             !- Sun Exposure
  WindExposed,                            !- Wind Exposure
  ,                                       !- View Factor to Ground
  ,                                       !- Number of Vertices
  11.6729512977653, -3.048, 2.4384,       !- X,Y,Z Vertex 1 {m}
  11.6729512977653, -3.048, 0,            !- X,Y,Z Vertex 2 {m}
  11.6729512977653, 3.048, 0,             !- X,Y,Z Vertex 3 {m}
  11.6729512977653, 3.048, 2.4384;        !- X,Y,Z Vertex 4 {m}

OS:Surface,
  {614815e8-0ca9-4580-b4bb-7e2270c08408}, !- Handle
  Surface 5,                              !- Name
  Wall,                                   !- Surface Type
  ,                                       !- Construction Name
  {142f8769-de00-4efd-8a41-4b351477e6da}, !- Space Name
  Outdoors,                               !- Outside Boundary Condition
  ,                                       !- Outside Boundary Condition Object
  SunExposed,                             !- Sun Exposure
  WindExposed,                            !- Wind Exposure
  ,                                       !- View Factor to Ground
  ,                                       !- Number of Vertices
  5.57695129776527, -3.048, 2.4384,       !- X,Y,Z Vertex 1 {m}
  5.57695129776527, -3.048, 0,            !- X,Y,Z Vertex 2 {m}
  11.6729512977653, -3.048, 0,            !- X,Y,Z Vertex 3 {m}
  11.6729512977653, -3.048, 2.4384;       !- X,Y,Z Vertex 4 {m}

OS:Surface,
  {90b79dcf-9300-4051-afbc-7583f108d0e6}, !- Handle
  Surface 6,                              !- Name
  RoofCeiling,                            !- Surface Type
  ,                                       !- Construction Name
  {142f8769-de00-4efd-8a41-4b351477e6da}, !- Space Name
  Surface,                                !- Outside Boundary Condition
  {93e5e44f-b172-4702-9e24-ecec563feed5}, !- Outside Boundary Condition Object
  NoSun,                                  !- Sun Exposure
  NoWind,                                 !- Wind Exposure
  ,                                       !- View Factor to Ground
  ,                                       !- Number of Vertices
  11.6729512977653, -3.048, 2.4384,       !- X,Y,Z Vertex 1 {m}
  11.6729512977653, 3.048, 2.4384,        !- X,Y,Z Vertex 2 {m}
  5.57695129776527, 3.048, 2.4384,        !- X,Y,Z Vertex 3 {m}
  5.57695129776527, -3.048, 2.4384;       !- X,Y,Z Vertex 4 {m}

OS:SpaceType,
  {90538b21-e668-45fd-a40f-582cdc38372c}, !- Handle
  Space Type 1,                           !- Name
  ,                                       !- Default Construction Set Name
  ,                                       !- Default Schedule Set Name
  ,                                       !- Group Rendering Name
  ,                                       !- Design Specification Outdoor Air Object Name
  ,                                       !- Standards Template
  ,                                       !- Standards Building Type
  garage;                                 !- Standards Space Type

OS:Space,
  {f923b1d3-4df8-4862-87b9-8148c54381b2}, !- Handle
  living space,                           !- Name
  {22fee0fe-e11b-4ebc-a6e3-b2d61650ce9a}, !- Space Type Name
  ,                                       !- Default Construction Set Name
  ,                                       !- Default Schedule Set Name
  -0,                                     !- Direction of Relative North {deg}
  0,                                      !- X Origin {m}
  0,                                      !- Y Origin {m}
  0,                                      !- Z Origin {m}
  ,                                       !- Building Story Name
  {bb024a31-9f89-43ff-9641-2fb68e02a830}, !- Thermal Zone Name
  ,                                       !- Part of Total Floor Area
  ,                                       !- Design Specification Outdoor Air Object Name
  {c9e051f6-9799-44b3-9885-7d5ff2f0b97e}; !- Building Unit Name

OS:Surface,
  {d486c4fe-5dd7-42c9-80ba-9c0c079271eb}, !- Handle
  Surface 7,                              !- Name
  Floor,                                  !- Surface Type
  ,                                       !- Construction Name
  {f923b1d3-4df8-4862-87b9-8148c54381b2}, !- Space Name
  Surface,                                !- Outside Boundary Condition
  {36e2f7d7-ce0c-4494-982b-51e6fc22cc75}, !- Outside Boundary Condition Object
  NoSun,                                  !- Sun Exposure
  NoWind,                                 !- Wind Exposure
  ,                                       !- View Factor to Ground
  ,                                       !- Number of Vertices
  0, 0, 0,                                !- X,Y,Z Vertex 1 {m}
  0, 5.83647564888264, 0,                 !- X,Y,Z Vertex 2 {m}
  11.6729512977653, 5.83647564888264, 0,  !- X,Y,Z Vertex 3 {m}
  11.6729512977653, 3.048, 0,             !- X,Y,Z Vertex 4 {m}
  5.57695129776527, 3.048, 0,             !- X,Y,Z Vertex 5 {m}
  5.57695129776527, 0, 0;                 !- X,Y,Z Vertex 6 {m}

OS:Surface,
  {3ff16e4d-c844-4d7a-a7d3-c24dc29654c8}, !- Handle
  Surface 8,                              !- Name
  Wall,                                   !- Surface Type
  ,                                       !- Construction Name
  {f923b1d3-4df8-4862-87b9-8148c54381b2}, !- Space Name
  Outdoors,                               !- Outside Boundary Condition
  ,                                       !- Outside Boundary Condition Object
  SunExposed,                             !- Sun Exposure
  WindExposed,                            !- Wind Exposure
  ,                                       !- View Factor to Ground
  ,                                       !- Number of Vertices
  0, 5.83647564888264, 2.4384,            !- X,Y,Z Vertex 1 {m}
  0, 5.83647564888264, 0,                 !- X,Y,Z Vertex 2 {m}
  0, 0, 0,                                !- X,Y,Z Vertex 3 {m}
  0, 0, 2.4384;                           !- X,Y,Z Vertex 4 {m}

OS:Surface,
  {e7994def-81ed-48e6-b29c-036243f64e8d}, !- Handle
  Surface 9,                              !- Name
  Wall,                                   !- Surface Type
  ,                                       !- Construction Name
  {f923b1d3-4df8-4862-87b9-8148c54381b2}, !- Space Name
  Outdoors,                               !- Outside Boundary Condition
  ,                                       !- Outside Boundary Condition Object
  SunExposed,                             !- Sun Exposure
  WindExposed,                            !- Wind Exposure
  ,                                       !- View Factor to Ground
  ,                                       !- Number of Vertices
  11.6729512977653, 5.83647564888264, 2.4384, !- X,Y,Z Vertex 1 {m}
  11.6729512977653, 5.83647564888264, 0,  !- X,Y,Z Vertex 2 {m}
  0, 5.83647564888264, 0,                 !- X,Y,Z Vertex 3 {m}
  0, 5.83647564888264, 2.4384;            !- X,Y,Z Vertex 4 {m}

OS:Surface,
  {4e0d871a-f99a-4eaf-bcab-82e2f2c4722a}, !- Handle
  Surface 10,                             !- Name
  Wall,                                   !- Surface Type
  ,                                       !- Construction Name
  {f923b1d3-4df8-4862-87b9-8148c54381b2}, !- Space Name
  Outdoors,                               !- Outside Boundary Condition
  ,                                       !- Outside Boundary Condition Object
  SunExposed,                             !- Sun Exposure
  WindExposed,                            !- Wind Exposure
  ,                                       !- View Factor to Ground
  ,                                       !- Number of Vertices
  11.6729512977653, 3.048, 2.4384,        !- X,Y,Z Vertex 1 {m}
  11.6729512977653, 3.048, 0,             !- X,Y,Z Vertex 2 {m}
  11.6729512977653, 5.83647564888264, 0,  !- X,Y,Z Vertex 3 {m}
  11.6729512977653, 5.83647564888264, 2.4384; !- X,Y,Z Vertex 4 {m}

OS:Surface,
  {a29db567-1627-40f0-89b8-b4f40441eb56}, !- Handle
  Surface 11,                             !- Name
  Wall,                                   !- Surface Type
  ,                                       !- Construction Name
  {f923b1d3-4df8-4862-87b9-8148c54381b2}, !- Space Name
  Surface,                                !- Outside Boundary Condition
  {dc904f64-0776-4db4-9148-071ceaeecf2e}, !- Outside Boundary Condition Object
  NoSun,                                  !- Sun Exposure
  NoWind,                                 !- Wind Exposure
  ,                                       !- View Factor to Ground
  ,                                       !- Number of Vertices
  5.57695129776527, 3.048, 2.4384,        !- X,Y,Z Vertex 1 {m}
  5.57695129776527, 3.048, 0,             !- X,Y,Z Vertex 2 {m}
  11.6729512977653, 3.048, 0,             !- X,Y,Z Vertex 3 {m}
  11.6729512977653, 3.048, 2.4384;        !- X,Y,Z Vertex 4 {m}

OS:Surface,
  {fa3a5ff7-5e31-44ea-a093-a39060b0a521}, !- Handle
  Surface 12,                             !- Name
  Wall,                                   !- Surface Type
  ,                                       !- Construction Name
  {f923b1d3-4df8-4862-87b9-8148c54381b2}, !- Space Name
  Surface,                                !- Outside Boundary Condition
  {d39a8b40-5774-4ea2-ad66-a0080727ecf3}, !- Outside Boundary Condition Object
  NoSun,                                  !- Sun Exposure
  NoWind,                                 !- Wind Exposure
  ,                                       !- View Factor to Ground
  ,                                       !- Number of Vertices
  5.57695129776527, 0, 2.4384,            !- X,Y,Z Vertex 1 {m}
  5.57695129776527, 0, 0,                 !- X,Y,Z Vertex 2 {m}
  5.57695129776527, 3.048, 0,             !- X,Y,Z Vertex 3 {m}
  5.57695129776527, 3.048, 2.4384;        !- X,Y,Z Vertex 4 {m}

OS:Surface,
  {6d9fe32d-ac9b-41c0-af21-d649b717749a}, !- Handle
  Surface 13,                             !- Name
  Wall,                                   !- Surface Type
  ,                                       !- Construction Name
  {f923b1d3-4df8-4862-87b9-8148c54381b2}, !- Space Name
  Outdoors,                               !- Outside Boundary Condition
  ,                                       !- Outside Boundary Condition Object
  SunExposed,                             !- Sun Exposure
  WindExposed,                            !- Wind Exposure
  ,                                       !- View Factor to Ground
  ,                                       !- Number of Vertices
  0, 0, 2.4384,                           !- X,Y,Z Vertex 1 {m}
  0, 0, 0,                                !- X,Y,Z Vertex 2 {m}
  5.57695129776527, 0, 0,                 !- X,Y,Z Vertex 3 {m}
  5.57695129776527, 0, 2.4384;            !- X,Y,Z Vertex 4 {m}

OS:Surface,
  {569eda4b-b5af-4eeb-910d-ef0eacc9590e}, !- Handle
  Surface 14,                             !- Name
  RoofCeiling,                            !- Surface Type
  ,                                       !- Construction Name
  {f923b1d3-4df8-4862-87b9-8148c54381b2}, !- Space Name
  Surface,                                !- Outside Boundary Condition
  {1b064ce8-5c77-4a95-989d-fc0540ee3d6d}, !- Outside Boundary Condition Object
  NoSun,                                  !- Sun Exposure
  NoWind,                                 !- Wind Exposure
  ,                                       !- View Factor to Ground
  ,                                       !- Number of Vertices
  5.57695129776527, 0, 2.4384,            !- X,Y,Z Vertex 1 {m}
  5.57695129776527, 3.048, 2.4384,        !- X,Y,Z Vertex 2 {m}
  11.6729512977653, 3.048, 2.4384,        !- X,Y,Z Vertex 3 {m}
  11.6729512977653, 5.83647564888264, 2.4384, !- X,Y,Z Vertex 4 {m}
  0, 5.83647564888264, 2.4384,            !- X,Y,Z Vertex 5 {m}
  0, 0, 2.4384;                           !- X,Y,Z Vertex 6 {m}

OS:SpaceType,
  {22fee0fe-e11b-4ebc-a6e3-b2d61650ce9a}, !- Handle
  Space Type 2,                           !- Name
  ,                                       !- Default Construction Set Name
  ,                                       !- Default Schedule Set Name
  ,                                       !- Group Rendering Name
  ,                                       !- Design Specification Outdoor Air Object Name
  ,                                       !- Standards Template
  ,                                       !- Standards Building Type
  living;                                 !- Standards Space Type

OS:Space,
  {3d78e918-1d66-4e4e-b2f0-f848f99fba29}, !- Handle
  living space|story 2,                   !- Name
  {22fee0fe-e11b-4ebc-a6e3-b2d61650ce9a}, !- Space Type Name
  ,                                       !- Default Construction Set Name