!- NOTE: Auto-generated from /test/osw_files/SFD_2000sqft_2story_FB_UA_Denver_Boiler.osw

OS:Version,
  {0996ff13-dce8-4308-bda2-b777113267c0}, !- Handle
  2.8.0;                                  !- Version Identifier

OS:SimulationControl,
  {63d86136-9436-4ba6-b87a-c1b622aec5a5}, !- Handle
  ,                                       !- Do Zone Sizing Calculation
  ,                                       !- Do System Sizing Calculation
  ,                                       !- Do Plant Sizing Calculation
  No;                                     !- Run Simulation for Sizing Periods

OS:Timestep,
  {bdca3779-0406-4257-8ca0-81eef4c23f2c}, !- Handle
  6;                                      !- Number of Timesteps per Hour

OS:ShadowCalculation,
  {752f3702-c535-454d-9b7f-1e6fda555f05}, !- Handle
  20,                                     !- Calculation Frequency
  200;                                    !- Maximum Figures in Shadow Overlap Calculations

OS:SurfaceConvectionAlgorithm:Outside,
  {7322d4ae-e9c9-4a9e-b7aa-2a64a4dce64b}, !- Handle
  DOE-2;                                  !- Algorithm

OS:SurfaceConvectionAlgorithm:Inside,
  {63dbde86-1a8c-405b-a68b-e0afa7847275}, !- Handle
  TARP;                                   !- Algorithm

OS:ZoneCapacitanceMultiplier:ResearchSpecial,
  {3d71bc40-476c-4706-8f9f-2408b43bfd27}, !- Handle
  ,                                       !- Temperature Capacity Multiplier
  15,                                     !- Humidity Capacity Multiplier
  ;                                       !- Carbon Dioxide Capacity Multiplier

OS:RunPeriod,
  {701d3eda-326e-4319-b06a-4dea9fcb1555}, !- Handle
  Run Period 1,                           !- Name
  1,                                      !- Begin Month
  1,                                      !- Begin Day of Month
  12,                                     !- End Month
  31,                                     !- End Day of Month
  ,                                       !- Use Weather File Holidays and Special Days
  ,                                       !- Use Weather File Daylight Saving Period
  ,                                       !- Apply Weekend Holiday Rule
  ,                                       !- Use Weather File Rain Indicators
  ,                                       !- Use Weather File Snow Indicators
  ;                                       !- Number of Times Runperiod to be Repeated

OS:YearDescription,
  {b25b0935-7c9f-43ad-a230-c507322bbca0}, !- Handle
  2007,                                   !- Calendar Year
  ,                                       !- Day of Week for Start Day
  ;                                       !- Is Leap Year

OS:ThermalZone,
  {698f42e3-014b-4976-9e38-9764e13f4c54}, !- Handle
  living zone,                            !- Name
  ,                                       !- Multiplier
  ,                                       !- Ceiling Height {m}
  ,                                       !- Volume {m3}
  ,                                       !- Floor Area {m2}
  ,                                       !- Zone Inside Convection Algorithm
  ,                                       !- Zone Outside Convection Algorithm
  ,                                       !- Zone Conditioning Equipment List Name
  {dc2c4969-4c9a-4680-bc7d-d6ba35a43980}, !- Zone Air Inlet Port List
  {7d59df96-77e3-4751-81f2-36633cc1c509}, !- Zone Air Exhaust Port List
  {439f5bf1-fe34-48d6-aec3-04b0975b675a}, !- Zone Air Node Name
  {9681d2ce-44c5-4dd0-a7df-44c344144626}, !- Zone Return Air Port List
  ,                                       !- Primary Daylighting Control Name
  ,                                       !- Fraction of Zone Controlled by Primary Daylighting Control
  ,                                       !- Secondary Daylighting Control Name
  ,                                       !- Fraction of Zone Controlled by Secondary Daylighting Control
  ,                                       !- Illuminance Map Name
  ,                                       !- Group Rendering Name
  {834d78de-474a-4f19-b588-8cd615a7871f}, !- Thermostat Name
  No;                                     !- Use Ideal Air Loads

OS:Node,
  {43f2b782-0e4c-49ba-91e9-6f31d7bac66e}, !- Handle
  Node 1,                                 !- Name
  {439f5bf1-fe34-48d6-aec3-04b0975b675a}, !- Inlet Port
  ;                                       !- Outlet Port

OS:Connection,
  {439f5bf1-fe34-48d6-aec3-04b0975b675a}, !- Handle
  {929b50d7-f93e-4422-b4b2-940b3b9a1e64}, !- Name
  {698f42e3-014b-4976-9e38-9764e13f4c54}, !- Source Object
  11,                                     !- Outlet Port
  {43f2b782-0e4c-49ba-91e9-6f31d7bac66e}, !- Target Object
  2;                                      !- Inlet Port

OS:PortList,
  {dc2c4969-4c9a-4680-bc7d-d6ba35a43980}, !- Handle
  {b155b5fb-60c5-4e7c-b60d-74a98641fb55}, !- Name
  {698f42e3-014b-4976-9e38-9764e13f4c54}; !- HVAC Component

OS:PortList,
  {7d59df96-77e3-4751-81f2-36633cc1c509}, !- Handle
  {e2fce6ef-9cb5-4d3b-8ba3-f23ef9026a09}, !- Name
  {698f42e3-014b-4976-9e38-9764e13f4c54}; !- HVAC Component

OS:PortList,
  {9681d2ce-44c5-4dd0-a7df-44c344144626}, !- Handle
  {02193343-8c9b-46a7-bcb5-995bdb606677}, !- Name
  {698f42e3-014b-4976-9e38-9764e13f4c54}; !- HVAC Component

OS:Sizing:Zone,
  {03577232-0bbe-4c37-b00a-36f99f1e8865}, !- Handle
  {698f42e3-014b-4976-9e38-9764e13f4c54}, !- Zone or ZoneList Name
  SupplyAirTemperature,                   !- Zone Cooling Design Supply Air Temperature Input Method
  14,                                     !- Zone Cooling Design Supply Air Temperature {C}
  11.11,                                  !- Zone Cooling Design Supply Air Temperature Difference {deltaC}
  SupplyAirTemperature,                   !- Zone Heating Design Supply Air Temperature Input Method
  40,                                     !- Zone Heating Design Supply Air Temperature {C}
  11.11,                                  !- Zone Heating Design Supply Air Temperature Difference {deltaC}
  0.0085,                                 !- Zone Cooling Design Supply Air Humidity Ratio {kg-H2O/kg-air}
  0.008,                                  !- Zone Heating Design Supply Air Humidity Ratio {kg-H2O/kg-air}
  ,                                       !- Zone Heating Sizing Factor
  ,                                       !- Zone Cooling Sizing Factor
  DesignDay,                              !- Cooling Design Air Flow Method
  ,                                       !- Cooling Design Air Flow Rate {m3/s}
  ,                                       !- Cooling Minimum Air Flow per Zone Floor Area {m3/s-m2}
  ,                                       !- Cooling Minimum Air Flow {m3/s}
  ,                                       !- Cooling Minimum Air Flow Fraction
  DesignDay,                              !- Heating Design Air Flow Method
  ,                                       !- Heating Design Air Flow Rate {m3/s}
  ,                                       !- Heating Maximum Air Flow per Zone Floor Area {m3/s-m2}
  ,                                       !- Heating Maximum Air Flow {m3/s}
  ,                                       !- Heating Maximum Air Flow Fraction
  ,                                       !- Design Zone Air Distribution Effectiveness in Cooling Mode
  ,                                       !- Design Zone Air Distribution Effectiveness in Heating Mode
  No,                                     !- Account for Dedicated Outdoor Air System
  NeutralSupplyAir,                       !- Dedicated Outdoor Air System Control Strategy
  autosize,                               !- Dedicated Outdoor Air Low Setpoint Temperature for Design {C}
  autosize;                               !- Dedicated Outdoor Air High Setpoint Temperature for Design {C}

OS:ZoneHVAC:EquipmentList,
  {1da95457-e44d-40f3-9305-6f6f05a7f5cd}, !- Handle
  Zone HVAC Equipment List 1,             !- Name
  {698f42e3-014b-4976-9e38-9764e13f4c54}, !- Thermal Zone
  SequentialLoad,                         !- Load Distribution Scheme
  {d3fe72ea-97cd-4628-b827-487d3b1ac63b}, !- Zone Equipment 1
  1,                                      !- Zone Equipment Cooling Sequence 1
  1,                                      !- Zone Equipment Heating or No-Load Sequence 1
  ,                                       !- Zone Equipment Sequential Cooling Fraction 1
  ;                                       !- Zone Equipment Sequential Heating Fraction 1

OS:ThermalZone,
  {71f7488e-4a3a-4a83-a9d6-fc3f0a47135b}, !- Handle
  garage zone,                            !- Name
  ,                                       !- Multiplier
  ,                                       !- Ceiling Height {m}
  ,                                       !- Volume {m3}
  ,                                       !- Floor Area {m2}
  ,                                       !- Zone Inside Convection Algorithm
  ,                                       !- Zone Outside Convection Algorithm
  ,                                       !- Zone Conditioning Equipment List Name
  {4a871c9d-71fa-498d-bd4d-93e289be63f6}, !- Zone Air Inlet Port List
  {7d1bb72a-a36d-4af9-a1cf-dc9728b45d1d}, !- Zone Air Exhaust Port List
  {31c67890-cd35-4632-a821-c8372b02529b}, !- Zone Air Node Name
  {bcd2753f-9bd5-479b-8a31-7c4b8405ab24}, !- Zone Return Air Port List
  ,                                       !- Primary Daylighting Control Name
  ,                                       !- Fraction of Zone Controlled by Primary Daylighting Control
  ,                                       !- Secondary Daylighting Control Name
  ,                                       !- Fraction of Zone Controlled by Secondary Daylighting Control
  ,                                       !- Illuminance Map Name
  ,                                       !- Group Rendering Name
  ,                                       !- Thermostat Name
  No;                                     !- Use Ideal Air Loads

OS:Node,
  {2d9eff82-c7b8-4f33-9eea-a0a864c3cc38}, !- Handle
  Node 2,                                 !- Name
  {31c67890-cd35-4632-a821-c8372b02529b}, !- Inlet Port
  ;                                       !- Outlet Port

OS:Connection,
  {31c67890-cd35-4632-a821-c8372b02529b}, !- Handle
  {680a62c8-8d8c-44ca-b6b5-2295d1cc36b9}, !- Name
  {71f7488e-4a3a-4a83-a9d6-fc3f0a47135b}, !- Source Object
  11,                                     !- Outlet Port
  {2d9eff82-c7b8-4f33-9eea-a0a864c3cc38}, !- Target Object
  2;                                      !- Inlet Port

OS:PortList,
  {4a871c9d-71fa-498d-bd4d-93e289be63f6}, !- Handle
  {71b999cd-1ec7-40e7-aefb-41323d1a1c37}, !- Name
  {71f7488e-4a3a-4a83-a9d6-fc3f0a47135b}; !- HVAC Component

OS:PortList,
  {7d1bb72a-a36d-4af9-a1cf-dc9728b45d1d}, !- Handle
  {ead6ce8c-25be-4ac0-9777-5dc26935fee3}, !- Name
  {71f7488e-4a3a-4a83-a9d6-fc3f0a47135b}; !- HVAC Component

OS:PortList,
  {bcd2753f-9bd5-479b-8a31-7c4b8405ab24}, !- Handle
  {a9a05aa7-6f2a-47fc-868e-65cd3714d79e}, !- Name
  {71f7488e-4a3a-4a83-a9d6-fc3f0a47135b}; !- HVAC Component

OS:Sizing:Zone,
  {60df3a43-8e76-4bab-97b8-1ba34686862e}, !- Handle
  {71f7488e-4a3a-4a83-a9d6-fc3f0a47135b}, !- Zone or ZoneList Name
  SupplyAirTemperature,                   !- Zone Cooling Design Supply Air Temperature Input Method
  14,                                     !- Zone Cooling Design Supply Air Temperature {C}
  11.11,                                  !- Zone Cooling Design Supply Air Temperature Difference {deltaC}
  SupplyAirTemperature,                   !- Zone Heating Design Supply Air Temperature Input Method
  40,                                     !- Zone Heating Design Supply Air Temperature {C}
  11.11,                                  !- Zone Heating Design Supply Air Temperature Difference {deltaC}
  0.0085,                                 !- Zone Cooling Design Supply Air Humidity Ratio {kg-H2O/kg-air}
  0.008,                                  !- Zone Heating Design Supply Air Humidity Ratio {kg-H2O/kg-air}
  ,                                       !- Zone Heating Sizing Factor
  ,                                       !- Zone Cooling Sizing Factor
  DesignDay,                              !- Cooling Design Air Flow Method
  ,                                       !- Cooling Design Air Flow Rate {m3/s}
  ,                                       !- Cooling Minimum Air Flow per Zone Floor Area {m3/s-m2}
  ,                                       !- Cooling Minimum Air Flow {m3/s}
  ,                                       !- Cooling Minimum Air Flow Fraction
  DesignDay,                              !- Heating Design Air Flow Method
  ,                                       !- Heating Design Air Flow Rate {m3/s}
  ,                                       !- Heating Maximum Air Flow per Zone Floor Area {m3/s-m2}
  ,                                       !- Heating Maximum Air Flow {m3/s}
  ,                                       !- Heating Maximum Air Flow Fraction
  ,                                       !- Design Zone Air Distribution Effectiveness in Cooling Mode
  ,                                       !- Design Zone Air Distribution Effectiveness in Heating Mode
  No,                                     !- Account for Dedicated Outdoor Air System
  NeutralSupplyAir,                       !- Dedicated Outdoor Air System Control Strategy
  autosize,                               !- Dedicated Outdoor Air Low Setpoint Temperature for Design {C}
  autosize;                               !- Dedicated Outdoor Air High Setpoint Temperature for Design {C}

OS:ZoneHVAC:EquipmentList,
  {177f0b39-abf8-4e8e-b142-71b1f6543201}, !- Handle
  Zone HVAC Equipment List 2,             !- Name
  {71f7488e-4a3a-4a83-a9d6-fc3f0a47135b}; !- Thermal Zone

OS:Space,
  {3f096a57-5b3f-4b4b-936f-ba6e4fde2c6c}, !- Handle
  garage space,                           !- Name
  {d2027eb9-510e-42a6-b37f-5593df9e8013}, !- Space Type Name
  ,                                       !- Default Construction Set Name
  ,                                       !- Default Schedule Set Name
  -0,                                     !- Direction of Relative North {deg}
  0,                                      !- X Origin {m}
  0,                                      !- Y Origin {m}
  0,                                      !- Z Origin {m}
  ,                                       !- Building Story Name
  {71f7488e-4a3a-4a83-a9d6-fc3f0a47135b}; !- Thermal Zone Name

OS:Surface,
  {31341684-d926-4a72-98cc-4673ce19cde6}, !- Handle
  Surface 1,                              !- Name
  Floor,                                  !- Surface Type
  ,                                       !- Construction Name
  {3f096a57-5b3f-4b4b-936f-ba6e4fde2c6c}, !- Space Name
  Foundation,                             !- Outside Boundary Condition
  ,                                       !- Outside Boundary Condition Object
  NoSun,                                  !- Sun Exposure
  NoWind,                                 !- Wind Exposure
  ,                                       !- View Factor to Ground
  ,                                       !- Number of Vertices
  5.57695129776527, -3.048, 0,            !- X,Y,Z Vertex 1 {m}
  5.57695129776527, 3.048, 0,             !- X,Y,Z Vertex 2 {m}
  11.6729512977653, 3.048, 0,             !- X,Y,Z Vertex 3 {m}
  11.6729512977653, -3.048, 0;            !- X,Y,Z Vertex 4 {m}

OS:Surface,
  {11457320-bd38-4aef-9ceb-5536f3299574}, !- Handle
  Surface 2,                              !- Name
  Wall,                                   !- Surface Type
  ,                                       !- Construction Name
  {3f096a57-5b3f-4b4b-936f-ba6e4fde2c6c}, !- Space Name
  Surface,                                !- Outside Boundary Condition
  {702e3969-21ef-400c-8fb8-51a39a897610}, !- Outside Boundary Condition Object
  NoSun,                                  !- Sun Exposure
  NoWind,                                 !- Wind Exposure
  ,                                       !- View Factor to Ground
  ,                                       !- Number of Vertices
  5.57695129776527, 3.048, 2.4384,        !- X,Y,Z Vertex 1 {m}
  5.57695129776527, 3.048, 0,             !- X,Y,Z Vertex 2 {m}
  5.57695129776527, 0, 0,                 !- X,Y,Z Vertex 3 {m}
  5.57695129776527, 0, 2.4384;            !- X,Y,Z Vertex 4 {m}

OS:Surface,
  {6018ecdf-cfff-4639-97b4-b7506dba56df}, !- Handle
  Surface 3,                              !- Name
  Wall,                                   !- Surface Type
  ,                                       !- Construction Name
  {3f096a57-5b3f-4b4b-936f-ba6e4fde2c6c}, !- Space Name
  Surface,                                !- Outside Boundary Condition
  {9a5d9131-64d0-4fd5-ad4e-3d0e64f39332}, !- Outside Boundary Condition Object
  NoSun,                                  !- Sun Exposure
  NoWind,                                 !- Wind Exposure
  ,                                       !- View Factor to Ground
  ,                                       !- Number of Vertices
  11.6729512977653, 3.048, 2.4384,        !- X,Y,Z Vertex 1 {m}
  11.6729512977653, 3.048, 0,             !- X,Y,Z Vertex 2 {m}
  5.57695129776527, 3.048, 0,             !- X,Y,Z Vertex 3 {m}
  5.57695129776527, 3.048, 2.4384;        !- X,Y,Z Vertex 4 {m}

OS:Surface,
  {b1d14886-cbd5-43b2-875e-3e642290c335}, !- Handle
  Surface 4,                              !- Name
  Wall,                                   !- Surface Type
  ,                                       !- Construction Name
  {3f096a57-5b3f-4b4b-936f-ba6e4fde2c6c}, !- Space Name
  Outdoors,                               !- Outside Boundary Condition
  ,                                       !- Outside Boundary Condition Object
  SunExposed,                             !- Sun Exposure
  WindExposed,                            !- Wind Exposure
  ,                                       !- View Factor to Ground
  ,                                       !- Number of Vertices
  11.6729512977653, -3.048, 2.4384,       !- X,Y,Z Vertex 1 {m}
  11.6729512977653, -3.048, 0,            !- X,Y,Z Vertex 2 {m}
  11.6729512977653, 3.048, 0,             !- X,Y,Z Vertex 3 {m}
  11.6729512977653, 3.048, 2.4384;        !- X,Y,Z Vertex 4 {m}

OS:Surface,
  {7a4ffe8a-ecba-48c0-86aa-1eb0f5e6119c}, !- Handle
  Surface 5,                              !- Name
  Wall,                                   !- Surface Type
  ,                                       !- Construction Name
  {3f096a57-5b3f-4b4b-936f-ba6e4fde2c6c}, !- Space Name
  Outdoors,                               !- Outside Boundary Condition
  ,                                       !- Outside Boundary Condition Object
  SunExposed,                             !- Sun Exposure
  WindExposed,                            !- Wind Exposure
  ,                                       !- View Factor to Ground
  ,                                       !- Number of Vertices
  5.57695129776527, -3.048, 2.4384,       !- X,Y,Z Vertex 1 {m}
  5.57695129776527, -3.048, 0,            !- X,Y,Z Vertex 2 {m}
  11.6729512977653, -3.048, 0,            !- X,Y,Z Vertex 3 {m}
  11.6729512977653, -3.048, 2.4384;       !- X,Y,Z Vertex 4 {m}

OS:Surface,
  {4cd41e80-0b94-44d0-b98c-bb955bc8fec9}, !- Handle
  Surface 6,                              !- Name
  RoofCeiling,                            !- Surface Type
  ,                                       !- Construction Name
  {3f096a57-5b3f-4b4b-936f-ba6e4fde2c6c}, !- Space Name
  Surface,                                !- Outside Boundary Condition
  {609adfac-5e86-4888-b626-884b373c8668}, !- Outside Boundary Condition Object
  NoSun,                                  !- Sun Exposure
  NoWind,                                 !- Wind Exposure
  ,                                       !- View Factor to Ground
  ,                                       !- Number of Vertices
  11.6729512977653, -3.048, 2.4384,       !- X,Y,Z Vertex 1 {m}
  11.6729512977653, 3.048, 2.4384,        !- X,Y,Z Vertex 2 {m}
  5.57695129776527, 3.048, 2.4384,        !- X,Y,Z Vertex 3 {m}
  5.57695129776527, -3.048, 2.4384;       !- X,Y,Z Vertex 4 {m}

OS:SpaceType,
  {d2027eb9-510e-42a6-b37f-5593df9e8013}, !- Handle
  Space Type 1,                           !- Name
  ,                                       !- Default Construction Set Name
  ,                                       !- Default Schedule Set Name
  ,                                       !- Group Rendering Name
  ,                                       !- Design Specification Outdoor Air Object Name
  ,                                       !- Standards Template
  ,                                       !- Standards Building Type
  garage;                                 !- Standards Space Type

OS:Space,
  {f5dbd676-7e26-4451-a209-c03bc846b227}, !- Handle
  living space,                           !- Name
  {5042f28e-1629-4e8e-bd45-7d716d4632ba}, !- Space Type Name
  ,                                       !- Default Construction Set Name
  ,                                       !- Default Schedule Set Name
  -0,                                     !- Direction of Relative North {deg}
  0,                                      !- X Origin {m}
  0,                                      !- Y Origin {m}
  0,                                      !- Z Origin {m}
  ,                                       !- Building Story Name
  {698f42e3-014b-4976-9e38-9764e13f4c54}, !- Thermal Zone Name
  ,                                       !- Part of Total Floor Area
  ,                                       !- Design Specification Outdoor Air Object Name
  {f9085003-f985-4cb9-b356-bb23afc89002}; !- Building Unit Name

OS:Surface,
  {260f3b0e-2498-46c4-b8ac-a3dc8c71df80}, !- Handle
  Surface 7,                              !- Name
  Floor,                                  !- Surface Type
  ,                                       !- Construction Name
  {f5dbd676-7e26-4451-a209-c03bc846b227}, !- Space Name
  Surface,                                !- Outside Boundary Condition
  {49dbcfe1-edf0-4bfb-a8d5-9f53a1a33d12}, !- Outside Boundary Condition Object
  NoSun,                                  !- Sun Exposure
  NoWind,                                 !- Wind Exposure
  ,                                       !- View Factor to Ground
  ,                                       !- Number of Vertices
  0, 0, 0,                                !- X,Y,Z Vertex 1 {m}
  0, 5.83647564888264, 0,                 !- X,Y,Z Vertex 2 {m}
  11.6729512977653, 5.83647564888264, 0,  !- X,Y,Z Vertex 3 {m}
  11.6729512977653, 3.048, 0,             !- X,Y,Z Vertex 4 {m}
  5.57695129776527, 3.048, 0,             !- X,Y,Z Vertex 5 {m}
  5.57695129776527, 0, 0;                 !- X,Y,Z Vertex 6 {m}

OS:Surface,
  {815867b8-9856-4436-a351-6d270b62042a}, !- Handle
  Surface 8,                              !- Name
  Wall,                                   !- Surface Type
  ,                                       !- Construction Name
  {f5dbd676-7e26-4451-a209-c03bc846b227}, !- Space Name
  Outdoors,                               !- Outside Boundary Condition
  ,                                       !- Outside Boundary Condition Object
  SunExposed,                             !- Sun Exposure
  WindExposed,                            !- Wind Exposure
  ,                                       !- View Factor to Ground
  ,                                       !- Number of Vertices
  0, 5.83647564888264, 2.4384,            !- X,Y,Z Vertex 1 {m}
  0, 5.83647564888264, 0,                 !- X,Y,Z Vertex 2 {m}
  0, 0, 0,                                !- X,Y,Z Vertex 3 {m}
  0, 0, 2.4384;                           !- X,Y,Z Vertex 4 {m}

OS:Surface,
  {01b07ce7-0977-419d-8ba0-d5e421197aa5}, !- Handle
  Surface 9,                              !- Name
  Wall,                                   !- Surface Type
  ,                                       !- Construction Name
  {f5dbd676-7e26-4451-a209-c03bc846b227}, !- Space Name
  Outdoors,                               !- Outside Boundary Condition
  ,                                       !- Outside Boundary Condition Object
  SunExposed,                             !- Sun Exposure
  WindExposed,                            !- Wind Exposure
  ,                                       !- View Factor to Ground
  ,                                       !- Number of Vertices
  11.6729512977653, 5.83647564888264, 2.4384, !- X,Y,Z Vertex 1 {m}
  11.6729512977653, 5.83647564888264, 0,  !- X,Y,Z Vertex 2 {m}
  0, 5.83647564888264, 0,                 !- X,Y,Z Vertex 3 {m}
  0, 5.83647564888264, 2.4384;            !- X,Y,Z Vertex 4 {m}

OS:Surface,
  {c9c2980a-c455-4e64-9155-6ddda31343f0}, !- Handle
  Surface 10,                             !- Name
  Wall,                                   !- Surface Type
  ,                                       !- Construction Name
  {f5dbd676-7e26-4451-a209-c03bc846b227}, !- Space Name
  Outdoors,                               !- Outside Boundary Condition
  ,                                       !- Outside Boundary Condition Object
  SunExposed,                             !- Sun Exposure
  WindExposed,                            !- Wind Exposure
  ,                                       !- View Factor to Ground
  ,                                       !- Number of Vertices
  11.6729512977653, 3.048, 2.4384,        !- X,Y,Z Vertex 1 {m}
  11.6729512977653, 3.048, 0,             !- X,Y,Z Vertex 2 {m}
  11.6729512977653, 5.83647564888264, 0,  !- X,Y,Z Vertex 3 {m}
  11.6729512977653, 5.83647564888264, 2.4384; !- X,Y,Z Vertex 4 {m}

OS:Surface,
  {9a5d9131-64d0-4fd5-ad4e-3d0e64f39332}, !- Handle
  Surface 11,                             !- Name
  Wall,                                   !- Surface Type
  ,                                       !- Construction Name
  {f5dbd676-7e26-4451-a209-c03bc846b227}, !- Space Name
  Surface,                                !- Outside Boundary Condition
  {6018ecdf-cfff-4639-97b4-b7506dba56df}, !- Outside Boundary Condition Object
  NoSun,                                  !- Sun Exposure
  NoWind,                                 !- Wind Exposure
  ,                                       !- View Factor to Ground
  ,                                       !- Number of Vertices
  5.57695129776527, 3.048, 2.4384,        !- X,Y,Z Vertex 1 {m}
  5.57695129776527, 3.048, 0,             !- X,Y,Z Vertex 2 {m}
  11.6729512977653, 3.048, 0,             !- X,Y,Z Vertex 3 {m}
  11.6729512977653, 3.048, 2.4384;        !- X,Y,Z Vertex 4 {m}

OS:Surface,
  {702e3969-21ef-400c-8fb8-51a39a897610}, !- Handle
  Surface 12,                             !- Name
  Wall,                                   !- Surface Type
  ,                                       !- Construction Name
  {f5dbd676-7e26-4451-a209-c03bc846b227}, !- Space Name
  Surface,                                !- Outside Boundary Condition
  {11457320-bd38-4aef-9ceb-5536f3299574}, !- Outside Boundary Condition Object
  NoSun,                                  !- Sun Exposure
  NoWind,                                 !- Wind Exposure
  ,                                       !- View Factor to Ground
  ,                                       !- Number of Vertices
  5.57695129776527, 0, 2.4384,            !- X,Y,Z Vertex 1 {m}
  5.57695129776527, 0, 0,                 !- X,Y,Z Vertex 2 {m}
  5.57695129776527, 3.048, 0,             !- X,Y,Z Vertex 3 {m}
  5.57695129776527, 3.048, 2.4384;        !- X,Y,Z Vertex 4 {m}

OS:Surface,
  {8c8274cf-6a84-4e90-aaf8-0846bb5aa9ac}, !- Handle
  Surface 13,                             !- Name
  Wall,                                   !- Surface Type
  ,                                       !- Construction Name
  {f5dbd676-7e26-4451-a209-c03bc846b227}, !- Space Name
  Outdoors,                               !- Outside Boundary Condition
  ,                                       !- Outside Boundary Condition Object
  SunExposed,                             !- Sun Exposure
  WindExposed,                            !- Wind Exposure
  ,                                       !- View Factor to Ground
  ,                                       !- Number of Vertices
  0, 0, 2.4384,                           !- X,Y,Z Vertex 1 {m}
  0, 0, 0,                                !- X,Y,Z Vertex 2 {m}
  5.57695129776527, 0, 0,                 !- X,Y,Z Vertex 3 {m}
  5.57695129776527, 0, 2.4384;            !- X,Y,Z Vertex 4 {m}

OS:Surface,
  {91e409a2-09d4-487b-b5b5-7a68675e7e38}, !- Handle
  Surface 14,                             !- Name
  RoofCeiling,                            !- Surface Type
  ,                                       !- Construction Name
  {f5dbd676-7e26-4451-a209-c03bc846b227}, !- Space Name
  Surface,                                !- Outside Boundary Condition
  {0fd305b5-1522-4f4a-b448-98a7fc2574df}, !- Outside Boundary Condition Object
  NoSun,                                  !- Sun Exposure
  NoWind,                                 !- Wind Exposure
  ,                                       !- View Factor to Ground
  ,                                       !- Number of Vertices
  5.57695129776527, 0, 2.4384,            !- X,Y,Z Vertex 1 {m}
  5.57695129776527, 3.048, 2.4384,        !- X,Y,Z Vertex 2 {m}
  11.6729512977653, 3.048, 2.4384,        !- X,Y,Z Vertex 3 {m}
  11.6729512977653, 5.83647564888264, 2.4384, !- X,Y,Z Vertex 4 {m}
  0, 5.83647564888264, 2.4384,            !- X,Y,Z Vertex 5 {m}
  0, 0, 2.4384;                           !- X,Y,Z Vertex 6 {m}

OS:SpaceType,
  {5042f28e-1629-4e8e-bd45-7d716d4632ba}, !- Handle
  Space Type 2,                           !- Name
  ,                                       !- Default Construction Set Name
  ,                                       !- Default Schedule Set Name
  ,                                       !- Group Rendering Name
  ,                                       !- Design Specification Outdoor Air Object Name