!- NOTE: Auto-generated from /test/osw_files/SFD_2000sqft_2story_FB_UA_Denver_ElectricBaseboard_RoomAC.osw

OS:Version,
  {b51da058-a7af-44a4-9ce0-b3dfd8b5adc0}, !- Handle
  2.8.0;                                  !- Version Identifier

OS:SimulationControl,
  {8696d76c-b158-42b3-8b57-63fc94441570}, !- Handle
  ,                                       !- Do Zone Sizing Calculation
  ,                                       !- Do System Sizing Calculation
  ,                                       !- Do Plant Sizing Calculation
  No;                                     !- Run Simulation for Sizing Periods

OS:Timestep,
  {952d40fc-167e-4075-80cd-3becc4493195}, !- Handle
  6;                                      !- Number of Timesteps per Hour

OS:ShadowCalculation,
  {4c8da5b0-fe38-4918-9395-f27b08a9a4a0}, !- Handle
  20,                                     !- Calculation Frequency
  200;                                    !- Maximum Figures in Shadow Overlap Calculations

OS:SurfaceConvectionAlgorithm:Outside,
  {5e7aa8ab-f515-4257-8f93-ade28600f4b2}, !- Handle
  DOE-2;                                  !- Algorithm

OS:SurfaceConvectionAlgorithm:Inside,
  {065c1a4d-f457-4c98-94c1-c0cec5206012}, !- Handle
  TARP;                                   !- Algorithm

OS:ZoneCapacitanceMultiplier:ResearchSpecial,
  {616ca8a7-7e5c-4013-87f5-8b8b82b38722}, !- Handle
  ,                                       !- Temperature Capacity Multiplier
  15,                                     !- Humidity Capacity Multiplier
  ;                                       !- Carbon Dioxide Capacity Multiplier

OS:RunPeriod,
  {a49b335b-e0a7-40ab-8932-2c21d2685057}, !- Handle
  Run Period 1,                           !- Name
  1,                                      !- Begin Month
  1,                                      !- Begin Day of Month
  12,                                     !- End Month
  31,                                     !- End Day of Month
  ,                                       !- Use Weather File Holidays and Special Days
  ,                                       !- Use Weather File Daylight Saving Period
  ,                                       !- Apply Weekend Holiday Rule
  ,                                       !- Use Weather File Rain Indicators
  ,                                       !- Use Weather File Snow Indicators
  ;                                       !- Number of Times Runperiod to be Repeated

OS:YearDescription,
  {33a54009-58ba-4625-b6c5-3f81eb7fb841}, !- Handle
  2007,                                   !- Calendar Year
  ,                                       !- Day of Week for Start Day
  ;                                       !- Is Leap Year

OS:ThermalZone,
  {f84a6379-88fa-471c-a116-45d41dc4161e}, !- Handle
  living zone,                            !- Name
  ,                                       !- Multiplier
  ,                                       !- Ceiling Height {m}
  ,                                       !- Volume {m3}
  ,                                       !- Floor Area {m2}
  ,                                       !- Zone Inside Convection Algorithm
  ,                                       !- Zone Outside Convection Algorithm
  ,                                       !- Zone Conditioning Equipment List Name
  {f866c5a7-755b-4b07-b281-f248deed4735}, !- Zone Air Inlet Port List
  {a0036064-6f79-459e-a31d-8aff9366db57}, !- Zone Air Exhaust Port List
  {802c97c6-5e47-4dee-898a-be35fd658266}, !- Zone Air Node Name
  {edfbd9eb-dd4d-4ccb-b500-2296b36057b2}, !- Zone Return Air Port List
  ,                                       !- Primary Daylighting Control Name
  ,                                       !- Fraction of Zone Controlled by Primary Daylighting Control
  ,                                       !- Secondary Daylighting Control Name
  ,                                       !- Fraction of Zone Controlled by Secondary Daylighting Control
  ,                                       !- Illuminance Map Name
  ,                                       !- Group Rendering Name
  {860a812a-b5c2-4e19-9c17-7b48fad6558f}, !- Thermostat Name
  No;                                     !- Use Ideal Air Loads

OS:Node,
  {6ac4973d-dba9-405f-b9ac-ac38d2e8ac7c}, !- Handle
  Node 1,                                 !- Name
  {802c97c6-5e47-4dee-898a-be35fd658266}, !- Inlet Port
  ;                                       !- Outlet Port

OS:Connection,
  {802c97c6-5e47-4dee-898a-be35fd658266}, !- Handle
  {9969da0c-d550-4f32-9ef7-ddfbc450d351}, !- Name
  {f84a6379-88fa-471c-a116-45d41dc4161e}, !- Source Object
  11,                                     !- Outlet Port
  {6ac4973d-dba9-405f-b9ac-ac38d2e8ac7c}, !- Target Object
  2;                                      !- Inlet Port

OS:PortList,
  {f866c5a7-755b-4b07-b281-f248deed4735}, !- Handle
  {40e911fa-3e34-4b23-a8e6-c1b3740513da}, !- Name
  {f84a6379-88fa-471c-a116-45d41dc4161e}, !- HVAC Component
  {9443d8da-1b64-4074-933c-447ccadb1a4f}; !- Port 1

OS:PortList,
  {a0036064-6f79-459e-a31d-8aff9366db57}, !- Handle
  {8bfa7ab0-375d-42d3-bd11-9b9c021a0146}, !- Name
  {f84a6379-88fa-471c-a116-45d41dc4161e}, !- HVAC Component
  {5035aac8-1b49-4f78-baf9-34a9d34dd212}; !- Port 1

OS:PortList,
  {edfbd9eb-dd4d-4ccb-b500-2296b36057b2}, !- Handle
  {c96eb67c-5d11-46b9-88ca-6e86594140eb}, !- Name
  {f84a6379-88fa-471c-a116-45d41dc4161e}; !- HVAC Component

OS:Sizing:Zone,
  {d54641c4-8aef-4fce-9f6d-23bc3e5132d5}, !- Handle
  {f84a6379-88fa-471c-a116-45d41dc4161e}, !- Zone or ZoneList Name
  SupplyAirTemperature,                   !- Zone Cooling Design Supply Air Temperature Input Method
  14,                                     !- Zone Cooling Design Supply Air Temperature {C}
  11.11,                                  !- Zone Cooling Design Supply Air Temperature Difference {deltaC}
  SupplyAirTemperature,                   !- Zone Heating Design Supply Air Temperature Input Method
  40,                                     !- Zone Heating Design Supply Air Temperature {C}
  11.11,                                  !- Zone Heating Design Supply Air Temperature Difference {deltaC}
  0.0085,                                 !- Zone Cooling Design Supply Air Humidity Ratio {kg-H2O/kg-air}
  0.008,                                  !- Zone Heating Design Supply Air Humidity Ratio {kg-H2O/kg-air}
  ,                                       !- Zone Heating Sizing Factor
  ,                                       !- Zone Cooling Sizing Factor
  DesignDay,                              !- Cooling Design Air Flow Method
  ,                                       !- Cooling Design Air Flow Rate {m3/s}
  ,                                       !- Cooling Minimum Air Flow per Zone Floor Area {m3/s-m2}
  ,                                       !- Cooling Minimum Air Flow {m3/s}
  ,                                       !- Cooling Minimum Air Flow Fraction
  DesignDay,                              !- Heating Design Air Flow Method
  ,                                       !- Heating Design Air Flow Rate {m3/s}
  ,                                       !- Heating Maximum Air Flow per Zone Floor Area {m3/s-m2}
  ,                                       !- Heating Maximum Air Flow {m3/s}
  ,                                       !- Heating Maximum Air Flow Fraction
  ,                                       !- Design Zone Air Distribution Effectiveness in Cooling Mode
  ,                                       !- Design Zone Air Distribution Effectiveness in Heating Mode
  No,                                     !- Account for Dedicated Outdoor Air System
  NeutralSupplyAir,                       !- Dedicated Outdoor Air System Control Strategy
  autosize,                               !- Dedicated Outdoor Air Low Setpoint Temperature for Design {C}
  autosize;                               !- Dedicated Outdoor Air High Setpoint Temperature for Design {C}

OS:ZoneHVAC:EquipmentList,
  {8cb44ede-303c-4d32-bab7-d2afbb0d681b}, !- Handle
  Zone HVAC Equipment List 1,             !- Name
  {f84a6379-88fa-471c-a116-45d41dc4161e}, !- Thermal Zone
  SequentialLoad,                         !- Load Distribution Scheme
  {e53787dc-abda-4e72-92dc-2362827cd6c7}, !- Zone Equipment 1
  1,                                      !- Zone Equipment Cooling Sequence 1
  1,                                      !- Zone Equipment Heating or No-Load Sequence 1
  ,                                       !- Zone Equipment Sequential Cooling Fraction 1
  ,                                       !- Zone Equipment Sequential Heating Fraction 1
  {ab399c09-b98d-4f25-a6c0-8d0970707fe3}, !- Zone Equipment 2
  2,                                      !- Zone Equipment Cooling Sequence 2
  2,                                      !- Zone Equipment Heating or No-Load Sequence 2
  ,                                       !- Zone Equipment Sequential Cooling Fraction 2
  ;                                       !- Zone Equipment Sequential Heating Fraction 2

OS:ThermalZone,
  {e6d64c60-f66e-4258-ad1d-81413b57b25d}, !- Handle
  garage zone,                            !- Name
  ,                                       !- Multiplier
  ,                                       !- Ceiling Height {m}
  ,                                       !- Volume {m3}
  ,                                       !- Floor Area {m2}
  ,                                       !- Zone Inside Convection Algorithm
  ,                                       !- Zone Outside Convection Algorithm
  ,                                       !- Zone Conditioning Equipment List Name
  {9cc52f1d-2639-4bdd-bed7-41cdefd43911}, !- Zone Air Inlet Port List
  {9882e8c9-aee1-4ae2-8dec-19ffb964be58}, !- Zone Air Exhaust Port List
  {858d8e1e-6301-499e-95df-a6e0b2fdc3c5}, !- Zone Air Node Name
  {68e03349-3704-4d3e-94dd-9c8a044a7f59}, !- Zone Return Air Port List
  ,                                       !- Primary Daylighting Control Name
  ,                                       !- Fraction of Zone Controlled by Primary Daylighting Control
  ,                                       !- Secondary Daylighting Control Name
  ,                                       !- Fraction of Zone Controlled by Secondary Daylighting Control
  ,                                       !- Illuminance Map Name
  ,                                       !- Group Rendering Name
  ,                                       !- Thermostat Name
  No;                                     !- Use Ideal Air Loads

OS:Node,
  {f7530e80-b87e-404d-8ce2-f88dbf738907}, !- Handle
  Node 2,                                 !- Name
  {858d8e1e-6301-499e-95df-a6e0b2fdc3c5}, !- Inlet Port
  ;                                       !- Outlet Port

OS:Connection,
  {858d8e1e-6301-499e-95df-a6e0b2fdc3c5}, !- Handle
  {a4157de0-20c0-4c1c-b7a9-5af61aa1bae6}, !- Name
  {e6d64c60-f66e-4258-ad1d-81413b57b25d}, !- Source Object
  11,                                     !- Outlet Port
  {f7530e80-b87e-404d-8ce2-f88dbf738907}, !- Target Object
  2;                                      !- Inlet Port

OS:PortList,
  {9cc52f1d-2639-4bdd-bed7-41cdefd43911}, !- Handle
  {4c614bfd-fb39-4bb8-9544-29771641eae5}, !- Name
  {e6d64c60-f66e-4258-ad1d-81413b57b25d}; !- HVAC Component

OS:PortList,
  {9882e8c9-aee1-4ae2-8dec-19ffb964be58}, !- Handle
  {d0965789-fad7-4da2-a99f-49b2066ab9f1}, !- Name
  {e6d64c60-f66e-4258-ad1d-81413b57b25d}; !- HVAC Component

OS:PortList,
  {68e03349-3704-4d3e-94dd-9c8a044a7f59}, !- Handle
  {d1ea17c0-d0df-4380-8cdb-8b74b7d6b697}, !- Name
  {e6d64c60-f66e-4258-ad1d-81413b57b25d}; !- HVAC Component

OS:Sizing:Zone,
  {b3b66ffa-9b3a-4901-bb0f-a5399d8f5fd5}, !- Handle
  {e6d64c60-f66e-4258-ad1d-81413b57b25d}, !- Zone or ZoneList Name
  SupplyAirTemperature,                   !- Zone Cooling Design Supply Air Temperature Input Method
  14,                                     !- Zone Cooling Design Supply Air Temperature {C}
  11.11,                                  !- Zone Cooling Design Supply Air Temperature Difference {deltaC}
  SupplyAirTemperature,                   !- Zone Heating Design Supply Air Temperature Input Method
  40,                                     !- Zone Heating Design Supply Air Temperature {C}
  11.11,                                  !- Zone Heating Design Supply Air Temperature Difference {deltaC}
  0.0085,                                 !- Zone Cooling Design Supply Air Humidity Ratio {kg-H2O/kg-air}
  0.008,                                  !- Zone Heating Design Supply Air Humidity Ratio {kg-H2O/kg-air}
  ,                                       !- Zone Heating Sizing Factor
  ,                                       !- Zone Cooling Sizing Factor
  DesignDay,                              !- Cooling Design Air Flow Method
  ,                                       !- Cooling Design Air Flow Rate {m3/s}
  ,                                       !- Cooling Minimum Air Flow per Zone Floor Area {m3/s-m2}
  ,                                       !- Cooling Minimum Air Flow {m3/s}
  ,                                       !- Cooling Minimum Air Flow Fraction
  DesignDay,                              !- Heating Design Air Flow Method
  ,                                       !- Heating Design Air Flow Rate {m3/s}
  ,                                       !- Heating Maximum Air Flow per Zone Floor Area {m3/s-m2}
  ,                                       !- Heating Maximum Air Flow {m3/s}
  ,                                       !- Heating Maximum Air Flow Fraction
  ,                                       !- Design Zone Air Distribution Effectiveness in Cooling Mode
  ,                                       !- Design Zone Air Distribution Effectiveness in Heating Mode
  No,                                     !- Account for Dedicated Outdoor Air System
  NeutralSupplyAir,                       !- Dedicated Outdoor Air System Control Strategy
  autosize,                               !- Dedicated Outdoor Air Low Setpoint Temperature for Design {C}
  autosize;                               !- Dedicated Outdoor Air High Setpoint Temperature for Design {C}

OS:ZoneHVAC:EquipmentList,
  {73cadb68-a0a2-439e-a2f2-5d85ee90cc24}, !- Handle
  Zone HVAC Equipment List 2,             !- Name
  {e6d64c60-f66e-4258-ad1d-81413b57b25d}; !- Thermal Zone

OS:Space,
  {d9f973b2-0fd9-40c5-a7ca-867ce1b86f51}, !- Handle
  garage space,                           !- Name
  {47e8e4ca-41df-416f-bb55-99d1b8a804a5}, !- Space Type Name
  ,                                       !- Default Construction Set Name
  ,                                       !- Default Schedule Set Name
  -0,                                     !- Direction of Relative North {deg}
  0,                                      !- X Origin {m}
  0,                                      !- Y Origin {m}
  0,                                      !- Z Origin {m}
  ,                                       !- Building Story Name
  {e6d64c60-f66e-4258-ad1d-81413b57b25d}; !- Thermal Zone Name

OS:Surface,
  {c0c324c7-f2b0-4c0d-b136-372104fa2062}, !- Handle
  Surface 1,                              !- Name
  Floor,                                  !- Surface Type
  ,                                       !- Construction Name
  {d9f973b2-0fd9-40c5-a7ca-867ce1b86f51}, !- Space Name
  Foundation,                             !- Outside Boundary Condition
  ,                                       !- Outside Boundary Condition Object
  NoSun,                                  !- Sun Exposure
  NoWind,                                 !- Wind Exposure
  ,                                       !- View Factor to Ground
  ,                                       !- Number of Vertices
  5.57695129776527, -3.048, 0,            !- X,Y,Z Vertex 1 {m}
  5.57695129776527, 3.048, 0,             !- X,Y,Z Vertex 2 {m}
  11.6729512977653, 3.048, 0,             !- X,Y,Z Vertex 3 {m}
  11.6729512977653, -3.048, 0;            !- X,Y,Z Vertex 4 {m}

OS:Surface,
  {16760476-0c8a-4a40-8480-7fc534163385}, !- Handle
  Surface 2,                              !- Name
  Wall,                                   !- Surface Type
  ,                                       !- Construction Name
  {d9f973b2-0fd9-40c5-a7ca-867ce1b86f51}, !- Space Name
  Surface,                                !- Outside Boundary Condition
  {136bfbc7-eab5-4e01-8630-bcaa565d1c87}, !- Outside Boundary Condition Object
  NoSun,                                  !- Sun Exposure
  NoWind,                                 !- Wind Exposure
  ,                                       !- View Factor to Ground
  ,                                       !- Number of Vertices
  5.57695129776527, 3.048, 2.4384,        !- X,Y,Z Vertex 1 {m}
  5.57695129776527, 3.048, 0,             !- X,Y,Z Vertex 2 {m}
  5.57695129776527, 0, 0,                 !- X,Y,Z Vertex 3 {m}
  5.57695129776527, 0, 2.4384;            !- X,Y,Z Vertex 4 {m}

OS:Surface,
  {32358dde-ec03-4cd2-80d8-28deb2f06d91}, !- Handle
  Surface 3,                              !- Name
  Wall,                                   !- Surface Type
  ,                                       !- Construction Name
  {d9f973b2-0fd9-40c5-a7ca-867ce1b86f51}, !- Space Name
  Surface,                                !- Outside Boundary Condition
  {d02364f8-df91-498c-9886-97e329765407}, !- Outside Boundary Condition Object
  NoSun,                                  !- Sun Exposure
  NoWind,                                 !- Wind Exposure
  ,                                       !- View Factor to Ground
  ,                                       !- Number of Vertices
  11.6729512977653, 3.048, 2.4384,        !- X,Y,Z Vertex 1 {m}
  11.6729512977653, 3.048, 0,             !- X,Y,Z Vertex 2 {m}
  5.57695129776527, 3.048, 0,             !- X,Y,Z Vertex 3 {m}
  5.57695129776527, 3.048, 2.4384;        !- X,Y,Z Vertex 4 {m}

OS:Surface,
  {defa7612-ad7d-475e-a31c-c0269effb7e6}, !- Handle
  Surface 4,                              !- Name
  Wall,                                   !- Surface Type
  ,                                       !- Construction Name
  {d9f973b2-0fd9-40c5-a7ca-867ce1b86f51}, !- Space Name
  Outdoors,                               !- Outside Boundary Condition
  ,                                       !- Outside Boundary Condition Object
  SunExposed,                             !- Sun Exposure
  WindExposed,                            !- Wind Exposure
  ,                                       !- View Factor to Ground
  ,                                       !- Number of Vertices
  11.6729512977653, -3.048, 2.4384,       !- X,Y,Z Vertex 1 {m}
  11.6729512977653, -3.048, 0,            !- X,Y,Z Vertex 2 {m}
  11.6729512977653, 3.048, 0,             !- X,Y,Z Vertex 3 {m}
  11.6729512977653, 3.048, 2.4384;        !- X,Y,Z Vertex 4 {m}

OS:Surface,
  {3776daa8-a467-49ef-936f-681b64bb195b}, !- Handle
  Surface 5,                              !- Name
  Wall,                                   !- Surface Type
  ,                                       !- Construction Name
  {d9f973b2-0fd9-40c5-a7ca-867ce1b86f51}, !- Space Name
  Outdoors,                               !- Outside Boundary Condition
  ,                                       !- Outside Boundary Condition Object
  SunExposed,                             !- Sun Exposure
  WindExposed,                            !- Wind Exposure
  ,                                       !- View Factor to Ground
  ,                                       !- Number of Vertices
  5.57695129776527, -3.048, 2.4384,       !- X,Y,Z Vertex 1 {m}
  5.57695129776527, -3.048, 0,            !- X,Y,Z Vertex 2 {m}
  11.6729512977653, -3.048, 0,            !- X,Y,Z Vertex 3 {m}
  11.6729512977653, -3.048, 2.4384;       !- X,Y,Z Vertex 4 {m}

OS:Surface,
  {579996fd-6a36-4287-a756-09df726ab394}, !- Handle
  Surface 6,                              !- Name
  RoofCeiling,                            !- Surface Type
  ,                                       !- Construction Name
  {d9f973b2-0fd9-40c5-a7ca-867ce1b86f51}, !- Space Name
  Surface,                                !- Outside Boundary Condition
  {601773e1-6bae-4596-8722-341e5ca533c0}, !- Outside Boundary Condition Object
  NoSun,                                  !- Sun Exposure
  NoWind,                                 !- Wind Exposure
  ,                                       !- View Factor to Ground
  ,                                       !- Number of Vertices
  11.6729512977653, -3.048, 2.4384,       !- X,Y,Z Vertex 1 {m}
  11.6729512977653, 3.048, 2.4384,        !- X,Y,Z Vertex 2 {m}
  5.57695129776527, 3.048, 2.4384,        !- X,Y,Z Vertex 3 {m}
  5.57695129776527, -3.048, 2.4384;       !- X,Y,Z Vertex 4 {m}

OS:SpaceType,
  {47e8e4ca-41df-416f-bb55-99d1b8a804a5}, !- Handle
  Space Type 1,                           !- Name
  ,                                       !- Default Construction Set Name
  ,                                       !- Default Schedule Set Name
  ,                                       !- Group Rendering Name
  ,                                       !- Design Specification Outdoor Air Object Name
  ,                                       !- Standards Template
  ,                                       !- Standards Building Type
  garage;                                 !- Standards Space Type

OS:Space,
  {fde39c30-5fb3-4e9d-b02b-966eac133e96}, !- Handle
  living space,                           !- Name
  {f37c2d8b-ae3f-408a-8591-d78494246623}, !- Space Type Name
  ,                                       !- Default Construction Set Name
  ,                                       !- Default Schedule Set Name
  -0,                                     !- Direction of Relative North {deg}
  0,                                      !- X Origin {m}
  0,                                      !- Y Origin {m}
  0,                                      !- Z Origin {m}
  ,                                       !- Building Story Name
  {f84a6379-88fa-471c-a116-45d41dc4161e}, !- Thermal Zone Name
  ,                                       !- Part of Total Floor Area
  ,                                       !- Design Specification Outdoor Air Object Name
  {22cac78e-9c4e-4440-97cd-0169b590a5d3}; !- Building Unit Name

OS:Surface,
  {1f1616ca-b943-447d-ab87-50d6439dd212}, !- Handle
  Surface 7,                              !- Name
  Floor,                                  !- Surface Type
  ,                                       !- Construction Name
  {fde39c30-5fb3-4e9d-b02b-966eac133e96}, !- Space Name
  Surface,                                !- Outside Boundary Condition
  {71d84787-5553-486e-8868-17e03f8e57c4}, !- Outside Boundary Condition Object
  NoSun,                                  !- Sun Exposure
  NoWind,                                 !- Wind Exposure
  ,                                       !- View Factor to Ground
  ,                                       !- Number of Vertices
  0, 0, 0,                                !- X,Y,Z Vertex 1 {m}
  0, 5.83647564888264, 0,                 !- X,Y,Z Vertex 2 {m}
  11.6729512977653, 5.83647564888264, 0,  !- X,Y,Z Vertex 3 {m}
  11.6729512977653, 3.048, 0,             !- X,Y,Z Vertex 4 {m}
  5.57695129776527, 3.048, 0,             !- X,Y,Z Vertex 5 {m}
  5.57695129776527, 0, 0;                 !- X,Y,Z Vertex 6 {m}

OS:Surface,
  {192b006b-dd37-4582-bae8-d73bfd51242f}, !- Handle
  Surface 8,                              !- Name
  Wall,                                   !- Surface Type
  ,                                       !- Construction Name
  {fde39c30-5fb3-4e9d-b02b-966eac133e96}, !- Space Name
  Outdoors,                               !- Outside Boundary Condition
  ,                                       !- Outside Boundary Condition Object
  SunExposed,                             !- Sun Exposure
  WindExposed,                            !- Wind Exposure
  ,                                       !- View Factor to Ground
  ,                                       !- Number of Vertices
  0, 5.83647564888264, 2.4384,            !- X,Y,Z Vertex 1 {m}
  0, 5.83647564888264, 0,                 !- X,Y,Z Vertex 2 {m}
  0, 0, 0,                                !- X,Y,Z Vertex 3 {m}
  0, 0, 2.4384;                           !- X,Y,Z Vertex 4 {m}

OS:Surface,
  {830593d3-c30d-4c84-8a43-b122a26b44a5}, !- Handle
  Surface 9,                              !- Name
  Wall,                                   !- Surface Type
  ,                                       !- Construction Name
  {fde39c30-5fb3-4e9d-b02b-966eac133e96}, !- Space Name
  Outdoors,                               !- Outside Boundary Condition
  ,                                       !- Outside Boundary Condition Object
  SunExposed,                             !- Sun Exposure
  WindExposed,                            !- Wind Exposure
  ,                                       !- View Factor to Ground
  ,                                       !- Number of Vertices
  11.6729512977653, 5.83647564888264, 2.4384, !- X,Y,Z Vertex 1 {m}
  11.6729512977653, 5.83647564888264, 0,  !- X,Y,Z Vertex 2 {m}
  0, 5.83647564888264, 0,                 !- X,Y,Z Vertex 3 {m}
  0, 5.83647564888264, 2.4384;            !- X,Y,Z Vertex 4 {m}

OS:Surface,
  {feedd37d-699f-497d-b225-fbe147a10298}, !- Handle
  Surface 10,                             !- Name
  Wall,                                   !- Surface Type
  ,                                       !- Construction Name
  {fde39c30-5fb3-4e9d-b02b-966eac133e96}, !- Space Name
  Outdoors,                               !- Outside Boundary Condition
  ,                                       !- Outside Boundary Condition Object
  SunExposed,                             !- Sun Exposure
  WindExposed,                            !- Wind Exposure
  ,                                       !- View Factor to Ground
  ,                                       !- Number of Vertices
  11.6729512977653, 3.048, 2.4384,        !- X,Y,Z Vertex 1 {m}
  11.6729512977653, 3.048, 0,             !- X,Y,Z Vertex 2 {m}
  11.6729512977653, 5.83647564888264, 0,  !- X,Y,Z Vertex 3 {m}
  11.6729512977653, 5.83647564888264, 2.4384; !- X,Y,Z Vertex 4 {m}

OS:Surface,
  {d02364f8-df91-498c-9886-97e329765407}, !- Handle
  Surface 11,                             !- Name
  Wall,                                   !- Surface Type
  ,                                       !- Construction Name
  {fde39c30-5fb3-4e9d-b02b-966eac133e96}, !- Space Name
  Surface,                                !- Outside Boundary Condition
  {32358dde-ec03-4cd2-80d8-28deb2f06d91}, !- Outside Boundary Condition Object
  NoSun,                                  !- Sun Exposure
  NoWind,                                 !- Wind Exposure
  ,                                       !- View Factor to Ground
  ,                                       !- Number of Vertices
  5.57695129776527, 3.048, 2.4384,        !- X,Y,Z Vertex 1 {m}
  5.57695129776527, 3.048, 0,             !- X,Y,Z Vertex 2 {m}
  11.6729512977653, 3.048, 0,             !- X,Y,Z Vertex 3 {m}
  11.6729512977653, 3.048, 2.4384;        !- X,Y,Z Vertex 4 {m}

OS:Surface,
  {136bfbc7-eab5-4e01-8630-bcaa565d1c87}, !- Handle
  Surface 12,                             !- Name
  Wall,                                   !- Surface Type
  ,                                       !- Construction Name
  {fde39c30-5fb3-4e9d-b02b-966eac133e96}, !- Space Name
  Surface,                                !- Outside Boundary Condition
  {16760476-0c8a-4a40-8480-7fc534163385}, !- Outside Boundary Condition Object
  NoSun,                                  !- Sun Exposure
  NoWind,                                 !- Wind Exposure
  ,                                       !- View Factor to Ground
  ,                                       !- Number of Vertices
  5.57695129776527, 0, 2.4384,            !- X,Y,Z Vertex 1 {m}
  5.57695129776527, 0, 0,                 !- X,Y,Z Vertex 2 {m}
  5.57695129776527, 3.048, 0,             !- X,Y,Z Vertex 3 {m}
  5.57695129776527, 3.048, 2.4384;        !- X,Y,Z Vertex 4 {m}

OS:Surface,
  {afaa003b-fbde-4154-a65b-cbf99e1ef97a}, !- Handle
  Surface 13,                             !- Name
  Wall,                                   !- Surface Type
  ,                                       !- Construction Name
  {fde39c30-5fb3-4e9d-b02b-966eac133e96}, !- Space Name
  Outdoors,                               !- Outside Boundary Condition
  ,                                       !- Outside Boundary Condition Object
  SunExposed,                             !- Sun Exposure
  WindExposed,                            !- Wind Exposure
  ,                                       !- View Factor to Ground
  ,                                       !- Number of Vertices
  0, 0, 2.4384,                           !- X,Y,Z Vertex 1 {m}
  0, 0, 0,                                !- X,Y,Z Vertex 2 {m}
  5.57695129776527, 0, 0,                 !- X,Y,Z Vertex 3 {m}
  5.57695129776527, 0, 2.4384;            !- X,Y,Z Vertex 4 {m}

OS:Surface,
  {735158fa-86b0-442d-ae11-4ae8498c04d4}, !- Handle
  Surface 14,                             !- Name
  RoofCeiling,                            !- Surface Type
  ,                                       !- Construction Name
  {fde39c30-5fb3-4e9d-b02b-966eac133e96}, !- Space Name
  Surface,                                !- Outside Boundary Condition
  {52b0d743-d026-49b7-83cc-a6e856eb316a}, !- Outside Boundary Condition Object
  NoSun,                                  !- Sun Exposure
  NoWind,                                 !- Wind Exposure
  ,                                       !- View Factor to Ground
  ,                                       !- Number of Vertices
  5.57695129776527, 0, 2.4384,            !- X,Y,Z Vertex 1 {m}
  5.57695129776527, 3.048, 2.4384,        !- X,Y,Z Vertex 2 {m}
  11.6729512977653, 3.048, 2.4384,        !- X,Y,Z Vertex 3 {m}
  11.6729512977653, 5.83647564888264, 2.4384, !- X,Y,Z Vertex 4 {m}