!- NOTE: Auto-generated from /test/osw_files/SFD_2000sqft_2story_FB_GRG_UA_3Beds_2Baths_Denver_WHTank_HWFixtures.osw

OS:Version,
  {e893bad9-6211-4930-af8d-2f70e6d12f41}, !- Handle
  2.9.0;                                  !- Version Identifier

OS:SimulationControl,
  {392f9ce3-503b-4b1a-9b71-4adc7aa8a7a4}, !- Handle
  ,                                       !- Do Zone Sizing Calculation
  ,                                       !- Do System Sizing Calculation
  ,                                       !- Do Plant Sizing Calculation
  No;                                     !- Run Simulation for Sizing Periods

OS:Timestep,
  {a21ac9cb-6aea-42b6-a586-cc3c0c908959}, !- Handle
  6;                                      !- Number of Timesteps per Hour

OS:ShadowCalculation,
  {e295d9cd-1236-4800-88c7-69caf4f63c81}, !- Handle
  20,                                     !- Calculation Frequency
  200;                                    !- Maximum Figures in Shadow Overlap Calculations

OS:SurfaceConvectionAlgorithm:Outside,
  {2f9c0129-614c-40bc-80d0-1e5aa1d09e7b}, !- Handle
  DOE-2;                                  !- Algorithm

OS:SurfaceConvectionAlgorithm:Inside,
  {06319362-081c-4ae5-b099-aef1edaf0791}, !- Handle
  TARP;                                   !- Algorithm

OS:ZoneCapacitanceMultiplier:ResearchSpecial,
  {e44bc957-4289-4e6c-afe5-5e2f22eb53c8}, !- Handle
  ,                                       !- Temperature Capacity Multiplier
  15,                                     !- Humidity Capacity Multiplier
  ;                                       !- Carbon Dioxide Capacity Multiplier

OS:RunPeriod,
  {fcf9e7e5-2460-48d5-a587-3f831ca020e2}, !- Handle
  Run Period 1,                           !- Name
  1,                                      !- Begin Month
  1,                                      !- Begin Day of Month
  12,                                     !- End Month
  31,                                     !- End Day of Month
  ,                                       !- Use Weather File Holidays and Special Days
  ,                                       !- Use Weather File Daylight Saving Period
  ,                                       !- Apply Weekend Holiday Rule
  ,                                       !- Use Weather File Rain Indicators
  ,                                       !- Use Weather File Snow Indicators
  ;                                       !- Number of Times Runperiod to be Repeated

OS:YearDescription,
  {65a8ed05-7563-416f-a47d-46f9ae654f3c}, !- Handle
  2007,                                   !- Calendar Year
  ,                                       !- Day of Week for Start Day
  ;                                       !- Is Leap Year

OS:ThermalZone,
  {f9b48e1e-ee7e-408c-888d-557eaa75adad}, !- Handle
  living zone,                            !- Name
  ,                                       !- Multiplier
  ,                                       !- Ceiling Height {m}
  ,                                       !- Volume {m3}
  ,                                       !- Floor Area {m2}
  ,                                       !- Zone Inside Convection Algorithm
  ,                                       !- Zone Outside Convection Algorithm
  ,                                       !- Zone Conditioning Equipment List Name
  {eb7fa8f0-2733-4c33-b739-3b70b569ce3d}, !- Zone Air Inlet Port List
  {e2f0cd60-1428-4d43-a504-6d21eafdf5fe}, !- Zone Air Exhaust Port List
  {080ec799-103a-4b38-8298-d46c01114788}, !- Zone Air Node Name
  {a5396a3c-ea7f-490b-a655-7cb878f6f1b3}, !- Zone Return Air Port List
  ,                                       !- Primary Daylighting Control Name
  ,                                       !- Fraction of Zone Controlled by Primary Daylighting Control
  ,                                       !- Secondary Daylighting Control Name
  ,                                       !- Fraction of Zone Controlled by Secondary Daylighting Control
  ,                                       !- Illuminance Map Name
  ,                                       !- Group Rendering Name
  ,                                       !- Thermostat Name
  No;                                     !- Use Ideal Air Loads

OS:Node,
  {2bdf410c-85a3-48a6-867a-d17b5a65f616}, !- Handle
  Node 1,                                 !- Name
  {080ec799-103a-4b38-8298-d46c01114788}, !- Inlet Port
  ;                                       !- Outlet Port

OS:Connection,
  {080ec799-103a-4b38-8298-d46c01114788}, !- Handle
  {020ce6f6-3eac-484c-bbb2-9e7b861d23a1}, !- Name
  {f9b48e1e-ee7e-408c-888d-557eaa75adad}, !- Source Object
  11,                                     !- Outlet Port
  {2bdf410c-85a3-48a6-867a-d17b5a65f616}, !- Target Object
  2;                                      !- Inlet Port

OS:PortList,
  {eb7fa8f0-2733-4c33-b739-3b70b569ce3d}, !- Handle
  {cac15913-eebd-4cd9-aa83-6ca4cd616659}, !- Name
  {f9b48e1e-ee7e-408c-888d-557eaa75adad}; !- HVAC Component

OS:PortList,
  {e2f0cd60-1428-4d43-a504-6d21eafdf5fe}, !- Handle
  {359dc676-503d-4487-a4fa-6acf31c87b38}, !- Name
  {f9b48e1e-ee7e-408c-888d-557eaa75adad}; !- HVAC Component

OS:PortList,
  {a5396a3c-ea7f-490b-a655-7cb878f6f1b3}, !- Handle
  {faed1b6b-9413-41d6-bc04-5cc9a0567403}, !- Name
  {f9b48e1e-ee7e-408c-888d-557eaa75adad}; !- HVAC Component

OS:Sizing:Zone,
  {ffa812a1-a7a3-493f-9a8d-d95dcdbb42cb}, !- Handle
  {f9b48e1e-ee7e-408c-888d-557eaa75adad}, !- Zone or ZoneList Name
  SupplyAirTemperature,                   !- Zone Cooling Design Supply Air Temperature Input Method
  14,                                     !- Zone Cooling Design Supply Air Temperature {C}
  11.11,                                  !- Zone Cooling Design Supply Air Temperature Difference {deltaC}
  SupplyAirTemperature,                   !- Zone Heating Design Supply Air Temperature Input Method
  40,                                     !- Zone Heating Design Supply Air Temperature {C}
  11.11,                                  !- Zone Heating Design Supply Air Temperature Difference {deltaC}
  0.0085,                                 !- Zone Cooling Design Supply Air Humidity Ratio {kg-H2O/kg-air}
  0.008,                                  !- Zone Heating Design Supply Air Humidity Ratio {kg-H2O/kg-air}
  ,                                       !- Zone Heating Sizing Factor
  ,                                       !- Zone Cooling Sizing Factor
  DesignDay,                              !- Cooling Design Air Flow Method
  ,                                       !- Cooling Design Air Flow Rate {m3/s}
  ,                                       !- Cooling Minimum Air Flow per Zone Floor Area {m3/s-m2}
  ,                                       !- Cooling Minimum Air Flow {m3/s}
  ,                                       !- Cooling Minimum Air Flow Fraction
  DesignDay,                              !- Heating Design Air Flow Method
  ,                                       !- Heating Design Air Flow Rate {m3/s}
  ,                                       !- Heating Maximum Air Flow per Zone Floor Area {m3/s-m2}
  ,                                       !- Heating Maximum Air Flow {m3/s}
  ,                                       !- Heating Maximum Air Flow Fraction
  ,                                       !- Design Zone Air Distribution Effectiveness in Cooling Mode
  ,                                       !- Design Zone Air Distribution Effectiveness in Heating Mode
  No,                                     !- Account for Dedicated Outdoor Air System
  NeutralSupplyAir,                       !- Dedicated Outdoor Air System Control Strategy
  autosize,                               !- Dedicated Outdoor Air Low Setpoint Temperature for Design {C}
  autosize;                               !- Dedicated Outdoor Air High Setpoint Temperature for Design {C}

OS:ZoneHVAC:EquipmentList,
  {1566d5f4-ec8f-490b-9e31-8e7c57f4da03}, !- Handle
  Zone HVAC Equipment List 1,             !- Name
  {f9b48e1e-ee7e-408c-888d-557eaa75adad}; !- Thermal Zone

OS:ThermalZone,
  {fd2f78ee-9cba-4c0d-85cb-9bc96610619c}, !- Handle
  garage zone,                            !- Name
  ,                                       !- Multiplier
  ,                                       !- Ceiling Height {m}
  ,                                       !- Volume {m3}
  ,                                       !- Floor Area {m2}
  ,                                       !- Zone Inside Convection Algorithm
  ,                                       !- Zone Outside Convection Algorithm
  ,                                       !- Zone Conditioning Equipment List Name
  {ae940a40-8795-4300-aa18-8711b577a6a6}, !- Zone Air Inlet Port List
  {07c22c04-c9d4-45e5-ab79-3869fefe9c02}, !- Zone Air Exhaust Port List
  {d1c0852d-e018-40a5-a576-ec4b7d12ee05}, !- Zone Air Node Name
  {302c7a13-aec2-4101-8d75-5c5012061c85}, !- Zone Return Air Port List
  ,                                       !- Primary Daylighting Control Name
  ,                                       !- Fraction of Zone Controlled by Primary Daylighting Control
  ,                                       !- Secondary Daylighting Control Name
  ,                                       !- Fraction of Zone Controlled by Secondary Daylighting Control
  ,                                       !- Illuminance Map Name
  ,                                       !- Group Rendering Name
  ,                                       !- Thermostat Name
  No;                                     !- Use Ideal Air Loads

OS:Node,
  {4a52e29e-385d-49f7-805f-0cb2c2fc3478}, !- Handle
  Node 2,                                 !- Name
  {d1c0852d-e018-40a5-a576-ec4b7d12ee05}, !- Inlet Port
  ;                                       !- Outlet Port

OS:Connection,
  {d1c0852d-e018-40a5-a576-ec4b7d12ee05}, !- Handle
  {8e06ea6a-9f5f-49c9-810c-2eefb7cbe826}, !- Name
  {fd2f78ee-9cba-4c0d-85cb-9bc96610619c}, !- Source Object
  11,                                     !- Outlet Port
  {4a52e29e-385d-49f7-805f-0cb2c2fc3478}, !- Target Object
  2;                                      !- Inlet Port

OS:PortList,
  {ae940a40-8795-4300-aa18-8711b577a6a6}, !- Handle
  {d4776bf0-300b-47c0-bb3a-34d420356b3e}, !- Name
  {fd2f78ee-9cba-4c0d-85cb-9bc96610619c}; !- HVAC Component

OS:PortList,
  {07c22c04-c9d4-45e5-ab79-3869fefe9c02}, !- Handle
  {f35d7887-eb38-43b4-b4cb-0ee91d0161a9}, !- Name
  {fd2f78ee-9cba-4c0d-85cb-9bc96610619c}; !- HVAC Component

OS:PortList,
  {302c7a13-aec2-4101-8d75-5c5012061c85}, !- Handle
  {01a2207f-5303-4eed-8c67-159e73c9aaab}, !- Name
  {fd2f78ee-9cba-4c0d-85cb-9bc96610619c}; !- HVAC Component

OS:Sizing:Zone,
  {58ec4b47-cb0f-4bc6-a416-fca1731e7768}, !- Handle
  {fd2f78ee-9cba-4c0d-85cb-9bc96610619c}, !- Zone or ZoneList Name
  SupplyAirTemperature,                   !- Zone Cooling Design Supply Air Temperature Input Method
  14,                                     !- Zone Cooling Design Supply Air Temperature {C}
  11.11,                                  !- Zone Cooling Design Supply Air Temperature Difference {deltaC}
  SupplyAirTemperature,                   !- Zone Heating Design Supply Air Temperature Input Method
  40,                                     !- Zone Heating Design Supply Air Temperature {C}
  11.11,                                  !- Zone Heating Design Supply Air Temperature Difference {deltaC}
  0.0085,                                 !- Zone Cooling Design Supply Air Humidity Ratio {kg-H2O/kg-air}
  0.008,                                  !- Zone Heating Design Supply Air Humidity Ratio {kg-H2O/kg-air}
  ,                                       !- Zone Heating Sizing Factor
  ,                                       !- Zone Cooling Sizing Factor
  DesignDay,                              !- Cooling Design Air Flow Method
  ,                                       !- Cooling Design Air Flow Rate {m3/s}
  ,                                       !- Cooling Minimum Air Flow per Zone Floor Area {m3/s-m2}
  ,                                       !- Cooling Minimum Air Flow {m3/s}
  ,                                       !- Cooling Minimum Air Flow Fraction
  DesignDay,                              !- Heating Design Air Flow Method
  ,                                       !- Heating Design Air Flow Rate {m3/s}
  ,                                       !- Heating Maximum Air Flow per Zone Floor Area {m3/s-m2}
  ,                                       !- Heating Maximum Air Flow {m3/s}
  ,                                       !- Heating Maximum Air Flow Fraction
  ,                                       !- Design Zone Air Distribution Effectiveness in Cooling Mode
  ,                                       !- Design Zone Air Distribution Effectiveness in Heating Mode
  No,                                     !- Account for Dedicated Outdoor Air System
  NeutralSupplyAir,                       !- Dedicated Outdoor Air System Control Strategy
  autosize,                               !- Dedicated Outdoor Air Low Setpoint Temperature for Design {C}
  autosize;                               !- Dedicated Outdoor Air High Setpoint Temperature for Design {C}

OS:ZoneHVAC:EquipmentList,
  {ea61520b-73ea-4de0-a103-d397d904a00f}, !- Handle
  Zone HVAC Equipment List 2,             !- Name
  {fd2f78ee-9cba-4c0d-85cb-9bc96610619c}; !- Thermal Zone

OS:Space,
  {d1e6e99f-2180-4961-b918-6165b3378521}, !- Handle
  garage space,                           !- Name
  {81c16da3-a5a5-41d2-ac55-90d34f51faac}, !- Space Type Name
  ,                                       !- Default Construction Set Name
  ,                                       !- Default Schedule Set Name
  -0,                                     !- Direction of Relative North {deg}
  0,                                      !- X Origin {m}
  0,                                      !- Y Origin {m}
  0,                                      !- Z Origin {m}
  ,                                       !- Building Story Name
  {fd2f78ee-9cba-4c0d-85cb-9bc96610619c}; !- Thermal Zone Name

OS:Surface,
  {3a8e5ff7-254d-495a-b90b-5338f9abd4e3}, !- Handle
  Surface 1,                              !- Name
  Floor,                                  !- Surface Type
  ,                                       !- Construction Name
  {d1e6e99f-2180-4961-b918-6165b3378521}, !- Space Name
  Foundation,                             !- Outside Boundary Condition
  ,                                       !- Outside Boundary Condition Object
  NoSun,                                  !- Sun Exposure
  NoWind,                                 !- Wind Exposure
  ,                                       !- View Factor to Ground
  ,                                       !- Number of Vertices
  5.57695129776527, -3.048, 0,            !- X,Y,Z Vertex 1 {m}
  5.57695129776527, 3.048, 0,             !- X,Y,Z Vertex 2 {m}
  11.6729512977653, 3.048, 0,             !- X,Y,Z Vertex 3 {m}
  11.6729512977653, -3.048, 0;            !- X,Y,Z Vertex 4 {m}

OS:Surface,
  {a457c95d-08fe-4cbe-a0dd-e3c40b1fbba2}, !- Handle
  Surface 2,                              !- Name
  Wall,                                   !- Surface Type
  ,                                       !- Construction Name
  {d1e6e99f-2180-4961-b918-6165b3378521}, !- Space Name
  Surface,                                !- Outside Boundary Condition
  {feb78445-878f-412f-9841-05816b2f316f}, !- Outside Boundary Condition Object
  NoSun,                                  !- Sun Exposure
  NoWind,                                 !- Wind Exposure
  ,                                       !- View Factor to Ground
  ,                                       !- Number of Vertices
  5.57695129776527, 3.048, 2.4384,        !- X,Y,Z Vertex 1 {m}
  5.57695129776527, 3.048, 0,             !- X,Y,Z Vertex 2 {m}
  5.57695129776527, 0, 0,                 !- X,Y,Z Vertex 3 {m}
  5.57695129776527, 0, 2.4384;            !- X,Y,Z Vertex 4 {m}

OS:Surface,
  {a4e1e546-324c-4779-8d03-0b87d7a1a2f6}, !- Handle
  Surface 3,                              !- Name
  Wall,                                   !- Surface Type
  ,                                       !- Construction Name
  {d1e6e99f-2180-4961-b918-6165b3378521}, !- Space Name
  Surface,                                !- Outside Boundary Condition
  {302ca140-0d3e-410a-8785-8a3b724f7417}, !- Outside Boundary Condition Object
  NoSun,                                  !- Sun Exposure
  NoWind,                                 !- Wind Exposure
  ,                                       !- View Factor to Ground
  ,                                       !- Number of Vertices
  11.6729512977653, 3.048, 2.4384,        !- X,Y,Z Vertex 1 {m}
  11.6729512977653, 3.048, 0,             !- X,Y,Z Vertex 2 {m}
  5.57695129776527, 3.048, 0,             !- X,Y,Z Vertex 3 {m}
  5.57695129776527, 3.048, 2.4384;        !- X,Y,Z Vertex 4 {m}

OS:Surface,
  {c8ca2123-a2fa-4f26-9cc9-eb37f09d35a6}, !- Handle
  Surface 4,                              !- Name
  Wall,                                   !- Surface Type
  ,                                       !- Construction Name
  {d1e6e99f-2180-4961-b918-6165b3378521}, !- Space Name
  Outdoors,                               !- Outside Boundary Condition
  ,                                       !- Outside Boundary Condition Object
  SunExposed,                             !- Sun Exposure
  WindExposed,                            !- Wind Exposure
  ,                                       !- View Factor to Ground
  ,                                       !- Number of Vertices
  11.6729512977653, -3.048, 2.4384,       !- X,Y,Z Vertex 1 {m}
  11.6729512977653, -3.048, 0,            !- X,Y,Z Vertex 2 {m}
  11.6729512977653, 3.048, 0,             !- X,Y,Z Vertex 3 {m}
  11.6729512977653, 3.048, 2.4384;        !- X,Y,Z Vertex 4 {m}

OS:Surface,
  {68dc615c-11d1-45cf-aadf-e4cae2a48d5f}, !- Handle
  Surface 5,                              !- Name
  Wall,                                   !- Surface Type
  ,                                       !- Construction Name
  {d1e6e99f-2180-4961-b918-6165b3378521}, !- Space Name
  Outdoors,                               !- Outside Boundary Condition
  ,                                       !- Outside Boundary Condition Object
  SunExposed,                             !- Sun Exposure
  WindExposed,                            !- Wind Exposure
  ,                                       !- View Factor to Ground
  ,                                       !- Number of Vertices
  5.57695129776527, -3.048, 2.4384,       !- X,Y,Z Vertex 1 {m}
  5.57695129776527, -3.048, 0,            !- X,Y,Z Vertex 2 {m}
  11.6729512977653, -3.048, 0,            !- X,Y,Z Vertex 3 {m}
  11.6729512977653, -3.048, 2.4384;       !- X,Y,Z Vertex 4 {m}

OS:Surface,
  {e8920808-5746-4138-a694-49850aca3ee5}, !- Handle
  Surface 6,                              !- Name
  RoofCeiling,                            !- Surface Type
  ,                                       !- Construction Name
  {d1e6e99f-2180-4961-b918-6165b3378521}, !- Space Name
  Surface,                                !- Outside Boundary Condition
  {36518b35-e760-419d-adc9-f1e38253c789}, !- Outside Boundary Condition Object
  NoSun,                                  !- Sun Exposure
  NoWind,                                 !- Wind Exposure
  ,                                       !- View Factor to Ground
  ,                                       !- Number of Vertices
  11.6729512977653, -3.048, 2.4384,       !- X,Y,Z Vertex 1 {m}
  11.6729512977653, 3.048, 2.4384,        !- X,Y,Z Vertex 2 {m}
  5.57695129776527, 3.048, 2.4384,        !- X,Y,Z Vertex 3 {m}
  5.57695129776527, -3.048, 2.4384;       !- X,Y,Z Vertex 4 {m}

OS:SpaceType,
  {81c16da3-a5a5-41d2-ac55-90d34f51faac}, !- Handle
  Space Type 1,                           !- Name
  ,                                       !- Default Construction Set Name
  ,                                       !- Default Schedule Set Name
  ,                                       !- Group Rendering Name
  ,                                       !- Design Specification Outdoor Air Object Name
  ,                                       !- Standards Template
  ,                                       !- Standards Building Type
  garage;                                 !- Standards Space Type

OS:Space,
  {4c311728-3415-49de-bda2-99c8ba07b00c}, !- Handle
  living space,                           !- Name
  {c516ef68-ea2b-446e-bf92-6e26989549a5}, !- Space Type Name
  ,                                       !- Default Construction Set Name
  ,                                       !- Default Schedule Set Name
  -0,                                     !- Direction of Relative North {deg}
  0,                                      !- X Origin {m}
  0,                                      !- Y Origin {m}
  0,                                      !- Z Origin {m}
  ,                                       !- Building Story Name
  {f9b48e1e-ee7e-408c-888d-557eaa75adad}, !- Thermal Zone Name
  ,                                       !- Part of Total Floor Area
  ,                                       !- Design Specification Outdoor Air Object Name
  {fb6a2c91-21ed-474f-acbd-ff9176e15032}; !- Building Unit Name

OS:Surface,
  {b3edd6eb-4c70-42f0-8295-fa201b7f4db8}, !- Handle
  Surface 7,                              !- Name
  Floor,                                  !- Surface Type
  ,                                       !- Construction Name
  {4c311728-3415-49de-bda2-99c8ba07b00c}, !- Space Name
  Surface,                                !- Outside Boundary Condition
  {6513a5eb-3cee-409c-8aab-1d2fdced63b9}, !- Outside Boundary Condition Object
  NoSun,                                  !- Sun Exposure
  NoWind,                                 !- Wind Exposure
  ,                                       !- View Factor to Ground
  ,                                       !- Number of Vertices
  0, 0, 0,                                !- X,Y,Z Vertex 1 {m}
  0, 5.83647564888264, 0,                 !- X,Y,Z Vertex 2 {m}
  11.6729512977653, 5.83647564888264, 0,  !- X,Y,Z Vertex 3 {m}
  11.6729512977653, 3.048, 0,             !- X,Y,Z Vertex 4 {m}
  5.57695129776527, 3.048, 0,             !- X,Y,Z Vertex 5 {m}
  5.57695129776527, 0, 0;                 !- X,Y,Z Vertex 6 {m}

OS:Surface,
  {473c73fe-1d72-46d2-af0e-03daa59a7b24}, !- Handle
  Surface 8,                              !- Name
  Wall,                                   !- Surface Type
  ,                                       !- Construction Name
  {4c311728-3415-49de-bda2-99c8ba07b00c}, !- Space Name
  Outdoors,                               !- Outside Boundary Condition
  ,                                       !- Outside Boundary Condition Object
  SunExposed,                             !- Sun Exposure
  WindExposed,                            !- Wind Exposure
  ,                                       !- View Factor to Ground
  ,                                       !- Number of Vertices
  0, 5.83647564888264, 2.4384,            !- X,Y,Z Vertex 1 {m}
  0, 5.83647564888264, 0,                 !- X,Y,Z Vertex 2 {m}
  0, 0, 0,                                !- X,Y,Z Vertex 3 {m}
  0, 0, 2.4384;                           !- X,Y,Z Vertex 4 {m}

OS:Surface,
  {b69c1b8e-b7b9-44f9-9fbf-7b3a5be26c72}, !- Handle
  Surface 9,                              !- Name
  Wall,                                   !- Surface Type
  ,                                       !- Construction Name
  {4c311728-3415-49de-bda2-99c8ba07b00c}, !- Space Name
  Outdoors,                               !- Outside Boundary Condition
  ,                                       !- Outside Boundary Condition Object
  SunExposed,                             !- Sun Exposure
  WindExposed,                            !- Wind Exposure
  ,                                       !- View Factor to Ground
  ,                                       !- Number of Vertices
  11.6729512977653, 5.83647564888264, 2.4384, !- X,Y,Z Vertex 1 {m}
  11.6729512977653, 5.83647564888264, 0,  !- X,Y,Z Vertex 2 {m}
  0, 5.83647564888264, 0,                 !- X,Y,Z Vertex 3 {m}
  0, 5.83647564888264, 2.4384;            !- X,Y,Z Vertex 4 {m}

OS:Surface,
  {c3a34687-c7f0-46d4-8985-e0302e100062}, !- Handle
  Surface 10,                             !- Name
  Wall,                                   !- Surface Type
  ,                                       !- Construction Name
  {4c311728-3415-49de-bda2-99c8ba07b00c}, !- Space Name
  Outdoors,                               !- Outside Boundary Condition
  ,                                       !- Outside Boundary Condition Object
  SunExposed,                             !- Sun Exposure
  WindExposed,                            !- Wind Exposure
  ,                                       !- View Factor to Ground
  ,                                       !- Number of Vertices
  11.6729512977653, 3.048, 2.4384,        !- X,Y,Z Vertex 1 {m}
  11.6729512977653, 3.048, 0,             !- X,Y,Z Vertex 2 {m}
  11.6729512977653, 5.83647564888264, 0,  !- X,Y,Z Vertex 3 {m}
  11.6729512977653, 5.83647564888264, 2.4384; !- X,Y,Z Vertex 4 {m}

OS:Surface,
  {302ca140-0d3e-410a-8785-8a3b724f7417}, !- Handle
  Surface 11,                             !- Name
  Wall,                                   !- Surface Type
  ,                                       !- Construction Name
  {4c311728-3415-49de-bda2-99c8ba07b00c}, !- Space Name
  Surface,                                !- Outside Boundary Condition
  {a4e1e546-324c-4779-8d03-0b87d7a1a2f6}, !- Outside Boundary Condition Object
  NoSun,                                  !- Sun Exposure
  NoWind,                                 !- Wind Exposure
  ,                                       !- View Factor to Ground
  ,                                       !- Number of Vertices
  5.57695129776527, 3.048, 2.4384,        !- X,Y,Z Vertex 1 {m}
  5.57695129776527, 3.048, 0,             !- X,Y,Z Vertex 2 {m}
  11.6729512977653, 3.048, 0,             !- X,Y,Z Vertex 3 {m}
  11.6729512977653, 3.048, 2.4384;        !- X,Y,Z Vertex 4 {m}

OS:Surface,
  {feb78445-878f-412f-9841-05816b2f316f}, !- Handle
  Surface 12,                             !- Name
  Wall,                                   !- Surface Type
  ,                                       !- Construction Name
  {4c311728-3415-49de-bda2-99c8ba07b00c}, !- Space Name
  Surface,                                !- Outside Boundary Condition
  {a457c95d-08fe-4cbe-a0dd-e3c40b1fbba2}, !- Outside Boundary Condition Object
  NoSun,                                  !- Sun Exposure
  NoWind,                                 !- Wind Exposure
  ,                                       !- View Factor to Ground
  ,                                       !- Number of Vertices
  5.57695129776527, 0, 2.4384,            !- X,Y,Z Vertex 1 {m}
  5.57695129776527, 0, 0,                 !- X,Y,Z Vertex 2 {m}
  5.57695129776527, 3.048, 0,             !- X,Y,Z Vertex 3 {m}
  5.57695129776527, 3.048, 2.4384;        !- X,Y,Z Vertex 4 {m}

OS:Surface,
  {7138d695-7206-4e85-8c14-92e2e47240a0}, !- Handle
  Surface 13,                             !- Name
  Wall,                                   !- Surface Type
  ,                                       !- Construction Name
  {4c311728-3415-49de-bda2-99c8ba07b00c}, !- Space Name
  Outdoors,                               !- Outside Boundary Condition
  ,                                       !- Outside Boundary Condition Object
  SunExposed,                             !- Sun Exposure
  WindExposed,                            !- Wind Exposure
  ,                                       !- View Factor to Ground
  ,                                       !- Number of Vertices
  0, 0, 2.4384,                           !- X,Y,Z Vertex 1 {m}
  0, 0, 0,                                !- X,Y,Z Vertex 2 {m}
  5.57695129776527, 0, 0,                 !- X,Y,Z Vertex 3 {m}
  5.57695129776527, 0, 2.4384;            !- X,Y,Z Vertex 4 {m}

OS:Surface,
  {d0fe8018-1850-406a-ac74-60c28aa164d0}, !- Handle
  Surface 14,                             !- Name
  RoofCeiling,                            !- Surface Type
  ,                                       !- Construction Name
  {4c311728-3415-49de-bda2-99c8ba07b00c}, !- Space Name
  Surface,                                !- Outside Boundary Condition
  {bfadccbb-1a4e-45a0-9aaa-c93e17272f59}, !- Outside Boundary Condition Object
  NoSun,                                  !- Sun Exposure
  NoWind,                                 !- Wind Exposure
  ,                                       !- View Factor to Ground
  ,                                       !- Number of Vertices
  5.57695129776527, 0, 2.4384,            !- X,Y,Z Vertex 1 {m}
  5.57695129776527, 3.048, 2.4384,        !- X,Y,Z Vertex 2 {m}
  11.6729512977653, 3.048, 2.4384,        !- X,Y,Z Vertex 3 {m}
  11.6729512977653, 5.83647564888264, 2.4384, !- X,Y,Z Vertex 4 {m}
  0, 5.83647564888264, 2.4384,            !- X,Y,Z Vertex 5 {m}
  0, 0, 2.4384;                           !- X,Y,Z Vertex 6 {m}

OS:SpaceType,
  {c516ef68-ea2b-446e-bf92-6e26989549a5}, !- Handle
  Space Type 2,                           !- Name
  ,                                       !- Default Construction Set Name
  ,                                       !- Default Schedule Set Name
  ,                                       !- Group Rendering Name
  ,                                       !- Design Specification Outdoor Air Object Name
  ,                                       !- Standards Template
  ,                                       !- Standards Building Type
  living;                                 !- Standards Space Type

OS:Space,
  {9bd4ec9d-6cd3-4f70-9479-6d4cfcb7e9a0}, !- Handle
  living space|story 2,                   !- Name
  {c516ef68-ea2b-446e-bf92-6e26989549a5}, !- Space Type Name
  ,                                       !- Default Construction Set Name