!- NOTE: Auto-generated from /test/osw_files/SFD_2story_FB_UA_GRG_GSHP_ElecTanklessWH.osw

OS:Version,
  {4a6646b6-8686-407e-8e8c-a7daea81a242}, !- Handle
  2.9.0;                                  !- Version Identifier

OS:SimulationControl,
  {835d18a3-c08f-4676-8b96-f9c56b720fb7}, !- Handle
  ,                                       !- Do Zone Sizing Calculation
  ,                                       !- Do System Sizing Calculation
  ,                                       !- Do Plant Sizing Calculation
  No;                                     !- Run Simulation for Sizing Periods

OS:Timestep,
  {14665b4f-0594-4de1-82d5-8b5399e4397b}, !- Handle
  6;                                      !- Number of Timesteps per Hour

OS:ShadowCalculation,
  {89752e61-566a-49cd-a96c-715d35b5d9b2}, !- Handle
  20,                                     !- Calculation Frequency
  200;                                    !- Maximum Figures in Shadow Overlap Calculations

OS:SurfaceConvectionAlgorithm:Outside,
  {e0b252af-ad95-4437-829e-b3fade148277}, !- Handle
  DOE-2;                                  !- Algorithm

OS:SurfaceConvectionAlgorithm:Inside,
  {2121c237-38ff-4ccb-b0da-f387149a1be8}, !- Handle
  TARP;                                   !- Algorithm

OS:ZoneCapacitanceMultiplier:ResearchSpecial,
  {37cd573d-9e4c-43e2-ae77-faa8b651cf94}, !- Handle
  ,                                       !- Temperature Capacity Multiplier
  15,                                     !- Humidity Capacity Multiplier
  ;                                       !- Carbon Dioxide Capacity Multiplier

OS:RunPeriod,
  {e8e0d0e1-616f-42cc-8243-d4af311aa680}, !- Handle
  Run Period 1,                           !- Name
  1,                                      !- Begin Month
  1,                                      !- Begin Day of Month
  12,                                     !- End Month
  31,                                     !- End Day of Month
  ,                                       !- Use Weather File Holidays and Special Days
  ,                                       !- Use Weather File Daylight Saving Period
  ,                                       !- Apply Weekend Holiday Rule
  ,                                       !- Use Weather File Rain Indicators
  ,                                       !- Use Weather File Snow Indicators
  ;                                       !- Number of Times Runperiod to be Repeated

OS:YearDescription,
  {0e4d50a6-c08c-4a55-880c-3256152d1da9}, !- Handle
  2007,                                   !- Calendar Year
  ,                                       !- Day of Week for Start Day
  ;                                       !- Is Leap Year

OS:WeatherFile,
  {ec62f880-b331-4c2d-bfa0-dd368ef55292}, !- Handle
  Denver Intl Ap,                         !- City
  CO,                                     !- State Province Region
  USA,                                    !- Country
  TMY3,                                   !- Data Source
  725650,                                 !- WMO Number
  39.83,                                  !- Latitude {deg}
  -104.65,                                !- Longitude {deg}
  -7,                                     !- Time Zone {hr}
  1650,                                   !- Elevation {m}
  file:../weather/USA_CO_Denver.Intl.AP.725650_TMY3.epw, !- Url
  E23378AA;                               !- Checksum

OS:AdditionalProperties,
  {ad1e9bc8-f7db-48f1-9a36-75ba3e3c9cc8}, !- Handle
  {ec62f880-b331-4c2d-bfa0-dd368ef55292}, !- Object Name
  EPWHeaderCity,                          !- Feature Name 1
  String,                                 !- Feature Data Type 1
  Denver Intl Ap,                         !- Feature Value 1
  EPWHeaderState,                         !- Feature Name 2
  String,                                 !- Feature Data Type 2
  CO,                                     !- Feature Value 2
  EPWHeaderCountry,                       !- Feature Name 3
  String,                                 !- Feature Data Type 3
  USA,                                    !- Feature Value 3
  EPWHeaderDataSource,                    !- Feature Name 4
  String,                                 !- Feature Data Type 4
  TMY3,                                   !- Feature Value 4
  EPWHeaderStation,                       !- Feature Name 5
  String,                                 !- Feature Data Type 5
  725650,                                 !- Feature Value 5
  EPWHeaderLatitude,                      !- Feature Name 6
  Double,                                 !- Feature Data Type 6
  39.829999999999998,                     !- Feature Value 6
  EPWHeaderLongitude,                     !- Feature Name 7
  Double,                                 !- Feature Data Type 7
  -104.65000000000001,                    !- Feature Value 7
  EPWHeaderTimezone,                      !- Feature Name 8
  Double,                                 !- Feature Data Type 8
  -7,                                     !- Feature Value 8
  EPWHeaderAltitude,                      !- Feature Name 9
  Double,                                 !- Feature Data Type 9
  5413.3858267716532,                     !- Feature Value 9
  EPWHeaderLocalPressure,                 !- Feature Name 10
  Double,                                 !- Feature Data Type 10
  0.81937567683596546,                    !- Feature Value 10
  EPWHeaderRecordsPerHour,                !- Feature Name 11
  Double,                                 !- Feature Data Type 11
  0,                                      !- Feature Value 11
  EPWDataAnnualAvgDrybulb,                !- Feature Name 12
  Double,                                 !- Feature Data Type 12
  51.575616438356228,                     !- Feature Value 12
  EPWDataAnnualMinDrybulb,                !- Feature Name 13
  Double,                                 !- Feature Data Type 13
  -2.9200000000000017,                    !- Feature Value 13
  EPWDataAnnualMaxDrybulb,                !- Feature Name 14
  Double,                                 !- Feature Data Type 14
  104,                                    !- Feature Value 14
  EPWDataCDD50F,                          !- Feature Name 15
  Double,                                 !- Feature Data Type 15
  3072.2925000000005,                     !- Feature Value 15
  EPWDataCDD65F,                          !- Feature Name 16
  Double,                                 !- Feature Data Type 16
  883.62000000000035,                     !- Feature Value 16
  EPWDataHDD50F,                          !- Feature Name 17
  Double,                                 !- Feature Data Type 17
  2497.1925000000001,                     !- Feature Value 17
  EPWDataHDD65F,                          !- Feature Name 18
  Double,                                 !- Feature Data Type 18
  5783.5200000000013,                     !- Feature Value 18
  EPWDataAnnualAvgWindspeed,              !- Feature Name 19
  Double,                                 !- Feature Data Type 19
  3.9165296803649667,                     !- Feature Value 19
  EPWDataMonthlyAvgDrybulbs,              !- Feature Name 20
  String,                                 !- Feature Data Type 20
  33.4191935483871&#4431.90142857142857&#4443.02620967741937&#4442.48624999999999&#4459.877741935483854&#4473.57574999999997&#4472.07975806451608&#4472.70008064516134&#4466.49200000000006&#4450.079112903225806&#4437.218250000000005&#4434.582177419354835, !- Feature Value 20
  EPWDataGroundMonthlyTemps,              !- Feature Name 21
  String,                                 !- Feature Data Type 21
  44.08306285945173&#4440.89570904991865&#4440.64045432632048&#4442.153016571250646&#4448.225111118704206&#4454.268919273837525&#4459.508577937551024&#4462.82777283423508&#4463.10975667174995&#4460.41014950381947&#4455.304105212311526&#4449.445696474514364, !- Feature Value 21
  EPWDataWSF,                             !- Feature Name 22
  Double,                                 !- Feature Data Type 22
  0.58999999999999997,                    !- Feature Value 22
  EPWDataMonthlyAvgDailyHighDrybulbs,     !- Feature Name 23
  String,                                 !- Feature Data Type 23
  47.41032258064516&#4446.58642857142857&#4455.15032258064517&#4453.708&#4472.80193548387098&#4488.67600000000002&#4486.1858064516129&#4485.87225806451613&#4482.082&#4463.18064516129033&#4448.73400000000001&#4448.87935483870968, !- Feature Value 23
  EPWDataMonthlyAvgDailyLowDrybulbs,      !- Feature Name 24
  String,                                 !- Feature Data Type 24
  19.347741935483874&#4419.856428571428573&#4430.316129032258065&#4431.112&#4447.41612903225806&#4457.901999999999994&#4459.063870967741934&#4460.956774193548384&#4452.352000000000004&#4438.41612903225806&#4427.002000000000002&#4423.02903225806451, !- Feature Value 24
  EPWDesignHeatingDrybulb,                !- Feature Name 25
  Double,                                 !- Feature Data Type 25
  12.02,                                  !- Feature Value 25
  EPWDesignHeatingWindspeed,              !- Feature Name 26
  Double,                                 !- Feature Data Type 26
  2.8062500000000004,                     !- Feature Value 26
  EPWDesignCoolingDrybulb,                !- Feature Name 27
  Double,                                 !- Feature Data Type 27
  91.939999999999998,                     !- Feature Value 27
  EPWDesignCoolingWetbulb,                !- Feature Name 28
  Double,                                 !- Feature Data Type 28
  59.95131430195849,                      !- Feature Value 28
  EPWDesignCoolingHumidityRatio,          !- Feature Name 29
  Double,                                 !- Feature Data Type 29
  0.0059161086834698092,                  !- Feature Value 29
  EPWDesignCoolingWindspeed,              !- Feature Name 30
  Double,                                 !- Feature Data Type 30
  3.7999999999999989,                     !- Feature Value 30
  EPWDesignDailyTemperatureRange,         !- Feature Name 31
  Double,                                 !- Feature Data Type 31
  24.915483870967748,                     !- Feature Value 31
  EPWDesignDehumidDrybulb,                !- Feature Name 32
  Double,                                 !- Feature Data Type 32
  67.996785714285721,                     !- Feature Value 32
  EPWDesignDehumidHumidityRatio,          !- Feature Name 33
  Double,                                 !- Feature Data Type 33
  0.012133744170488724,                   !- Feature Value 33
  EPWDesignCoolingDirectNormal,           !- Feature Name 34
  Double,                                 !- Feature Data Type 34
  985,                                    !- Feature Value 34
  EPWDesignCoolingDiffuseHorizontal,      !- Feature Name 35
  Double,                                 !- Feature Data Type 35
  84;                                     !- Feature Value 35

OS:Site,
  {907b0213-c74b-462f-84c9-897fbc6ebed9}, !- Handle
  Denver Intl Ap_CO_USA,                  !- Name
  39.83,                                  !- Latitude {deg}
  -104.65,                                !- Longitude {deg}
  -7,                                     !- Time Zone {hr}
  1650,                                   !- Elevation {m}
  Suburbs;                                !- Terrain

OS:ClimateZones,
  {46550388-1a18-48ec-9b98-045882c4723a}, !- Handle
  ,                                       !- Active Institution
  ,                                       !- Active Year
  ,                                       !- Climate Zone Institution Name 1
  ,                                       !- Climate Zone Document Name 1
  ,                                       !- Climate Zone Document Year 1
  ,                                       !- Climate Zone Value 1
  Building America,                       !- Climate Zone Institution Name 2
  ,                                       !- Climate Zone Document Name 2
  0,                                      !- Climate Zone Document Year 2
  Cold;                                   !- Climate Zone Value 2

OS:Site:WaterMainsTemperature,
  {9dc0efde-1961-4bd7-939a-d3c29de3ff82}, !- Handle
  Correlation,                            !- Calculation Method
  ,                                       !- Temperature Schedule Name
  10.8753424657535,                       !- Annual Average Outdoor Air Temperature {C}
  23.1524007936508;                       !- Maximum Difference In Monthly Average Outdoor Air Temperatures {deltaC}

OS:RunPeriodControl:DaylightSavingTime,
  {2ec54585-7772-4a67-9fd6-5baf65501441}, !- Handle
  3/12,                                   !- Start Date
  11/5;                                   !- End Date

OS:Site:GroundTemperature:Deep,
  {4a52e75f-9fe1-426f-85ae-fb27b3dec898}, !- Handle
  10.8753424657535,                       !- January Deep Ground Temperature {C}
  10.8753424657535,                       !- February Deep Ground Temperature {C}
  10.8753424657535,                       !- March Deep Ground Temperature {C}
  10.8753424657535,                       !- April Deep Ground Temperature {C}
  10.8753424657535,                       !- May Deep Ground Temperature {C}
  10.8753424657535,                       !- June Deep Ground Temperature {C}
  10.8753424657535,                       !- July Deep Ground Temperature {C}
  10.8753424657535,                       !- August Deep Ground Temperature {C}
  10.8753424657535,                       !- September Deep Ground Temperature {C}
  10.8753424657535,                       !- October Deep Ground Temperature {C}
  10.8753424657535,                       !- November Deep Ground Temperature {C}
  10.8753424657535;                       !- December Deep Ground Temperature {C}

OS:Building,
  {b6c87b1d-bd21-46d9-8b71-4c5e520c3739}, !- Handle
  Building 1,                             !- Name
  ,                                       !- Building Sector Type
  202.5,                                  !- North Axis {deg}
  ,                                       !- Nominal Floor to Floor Height {m}
  ,                                       !- Space Type Name
  ,                                       !- Default Construction Set Name
  ,                                       !- Default Schedule Set Name
  3,                                      !- Standards Number of Stories
  2,                                      !- Standards Number of Above Ground Stories
  ,                                       !- Standards Template
  singlefamilydetached,                   !- Standards Building Type
  1;                                      !- Standards Number of Living Units

OS:AdditionalProperties,
  {59635606-f075-4a39-b332-1508cbde4636}, !- Handle
  {b6c87b1d-bd21-46d9-8b71-4c5e520c3739}, !- Object Name
  Total Units Modeled,                    !- Feature Name 1
  Integer,                                !- Feature Data Type 1
  1,                                      !- Feature Value 1
  has_water_heater_flue,                  !- Feature Name 2
  Boolean,                                !- Feature Data Type 2
  false;                                  !- Feature Value 2

OS:ThermalZone,
  {f124803d-9a2c-43d5-b7ff-6023e00c28c0}, !- Handle
  living zone,                            !- Name
  ,                                       !- Multiplier
  ,                                       !- Ceiling Height {m}
  ,                                       !- Volume {m3}
  ,                                       !- Floor Area {m2}
  ,                                       !- Zone Inside Convection Algorithm
  ,                                       !- Zone Outside Convection Algorithm
  ,                                       !- Zone Conditioning Equipment List Name
  {96cfd2a2-5dac-468b-bb4e-3cf985b06ca0}, !- Zone Air Inlet Port List
  {8846d480-282e-4728-85ab-e5356f8fd994}, !- Zone Air Exhaust Port List
  {02abd74e-69d6-494f-8ecf-925ec80a83aa}, !- Zone Air Node Name
  {1f4eb6b7-cbda-4edc-b444-9082c7dad0f5}, !- Zone Return Air Port List
  ,                                       !- Primary Daylighting Control Name
  ,                                       !- Fraction of Zone Controlled by Primary Daylighting Control
  ,                                       !- Secondary Daylighting Control Name
  ,                                       !- Fraction of Zone Controlled by Secondary Daylighting Control
  ,                                       !- Illuminance Map Name
  ,                                       !- Group Rendering Name
  {5a78538b-eb1c-43cd-98d4-bcf6caf66a9e}, !- Thermostat Name
  No;                                     !- Use Ideal Air Loads

OS:Node,
  {d45868d7-d7df-4351-b028-31a089775746}, !- Handle
  Node 1,                                 !- Name
  {02abd74e-69d6-494f-8ecf-925ec80a83aa}, !- Inlet Port
  ;                                       !- Outlet Port

OS:Connection,
  {02abd74e-69d6-494f-8ecf-925ec80a83aa}, !- Handle
  {b3179e61-553a-49ac-a4d9-f634533ecc3d}, !- Name
  {f124803d-9a2c-43d5-b7ff-6023e00c28c0}, !- Source Object
  11,                                     !- Outlet Port
  {d45868d7-d7df-4351-b028-31a089775746}, !- Target Object
  2;                                      !- Inlet Port

OS:PortList,
  {96cfd2a2-5dac-468b-bb4e-3cf985b06ca0}, !- Handle
  {95a468e2-42b6-437c-8f94-87ecd494d601}, !- Name
  {f124803d-9a2c-43d5-b7ff-6023e00c28c0}, !- HVAC Component
  {6a0f0b05-2318-49cf-b943-1f9a24498d1e}, !- Port 1
  {22a80ab9-51bd-4527-b0d1-1bddad70580a}; !- Port 2

OS:PortList,
  {8846d480-282e-4728-85ab-e5356f8fd994}, !- Handle
  {bdfc2cff-b111-42c3-9893-87775b828d87}, !- Name
  {f124803d-9a2c-43d5-b7ff-6023e00c28c0}; !- HVAC Component

OS:PortList,
  {1f4eb6b7-cbda-4edc-b444-9082c7dad0f5}, !- Handle
  {f9d4e8d7-ff23-4a05-a7f8-84e371e3a427}, !- Name
  {f124803d-9a2c-43d5-b7ff-6023e00c28c0}, !- HVAC Component
  {ff631c43-2d2d-4e7f-bdce-f735e0c3ca7a}, !- Port 1
  {c4ba6a63-87e9-4e47-b3a8-4de846a861f1}; !- Port 2

OS:Sizing:Zone,
  {24ef837a-792e-43d4-a075-5fb5168ac08f}, !- Handle
  {f124803d-9a2c-43d5-b7ff-6023e00c28c0}, !- Zone or ZoneList Name
  SupplyAirTemperature,                   !- Zone Cooling Design Supply Air Temperature Input Method
  14,                                     !- Zone Cooling Design Supply Air Temperature {C}
  11.11,                                  !- Zone Cooling Design Supply Air Temperature Difference {deltaC}
  SupplyAirTemperature,                   !- Zone Heating Design Supply Air Temperature Input Method
  40,                                     !- Zone Heating Design Supply Air Temperature {C}
  11.11,                                  !- Zone Heating Design Supply Air Temperature Difference {deltaC}
  0.0085,                                 !- Zone Cooling Design Supply Air Humidity Ratio {kg-H2O/kg-air}
  0.008,                                  !- Zone Heating Design Supply Air Humidity Ratio {kg-H2O/kg-air}
  ,                                       !- Zone Heating Sizing Factor
  ,                                       !- Zone Cooling Sizing Factor
  DesignDay,                              !- Cooling Design Air Flow Method
  ,                                       !- Cooling Design Air Flow Rate {m3/s}
  ,                                       !- Cooling Minimum Air Flow per Zone Floor Area {m3/s-m2}
  ,                                       !- Cooling Minimum Air Flow {m3/s}
  ,                                       !- Cooling Minimum Air Flow Fraction
  DesignDay,                              !- Heating Design Air Flow Method
  ,                                       !- Heating Design Air Flow Rate {m3/s}
  ,                                       !- Heating Maximum Air Flow per Zone Floor Area {m3/s-m2}
  ,                                       !- Heating Maximum Air Flow {m3/s}
  ,                                       !- Heating Maximum Air Flow Fraction
  ,                                       !- Design Zone Air Distribution Effectiveness in Cooling Mode
  ,                                       !- Design Zone Air Distribution Effectiveness in Heating Mode
  No,                                     !- Account for Dedicated Outdoor Air System
  NeutralSupplyAir,                       !- Dedicated Outdoor Air System Control Strategy
  autosize,                               !- Dedicated Outdoor Air Low Setpoint Temperature for Design {C}
  autosize;                               !- Dedicated Outdoor Air High Setpoint Temperature for Design {C}

OS:ZoneHVAC:EquipmentList,
  {fb043710-e369-49d6-9d84-948b4f1541ff}, !- Handle
  Zone HVAC Equipment List 1,             !- Name
  {f124803d-9a2c-43d5-b7ff-6023e00c28c0}, !- Thermal Zone
  SequentialLoad,                         !- Load Distribution Scheme
  {c99685c8-02ef-40c2-9202-9996e78333f6}, !- Zone Equipment 1
  1,                                      !- Zone Equipment Cooling Sequence 1
  1,                                      !- Zone Equipment Heating or No-Load Sequence 1
  ,                                       !- Zone Equipment Sequential Cooling Fraction Schedule Name 1
  ,                                       !- Zone Equipment Sequential Heating Fraction Schedule Name 1
  {cd2d2413-bb45-4de2-a88a-645f207e5596}, !- Zone Equipment 2
  2,                                      !- Zone Equipment Cooling Sequence 2
  2,                                      !- Zone Equipment Heating or No-Load Sequence 2
  ,                                       !- Zone Equipment Sequential Cooling Fraction Schedule Name 2
  ;                                       !- Zone Equipment Sequential Heating Fraction Schedule Name 2

OS:ThermalZone,
  {230f9104-c57a-4a90-b94a-468df77e85c2}, !- Handle
  garage zone,                            !- Name
  ,                                       !- Multiplier
  ,                                       !- Ceiling Height {m}
  ,                                       !- Volume {m3}
  ,                                       !- Floor Area {m2}
  ,                                       !- Zone Inside Convection Algorithm
  ,                                       !- Zone Outside Convection Algorithm
  ,                                       !- Zone Conditioning Equipment List Name
  {fa5ddb89-b05f-45e1-aee6-7ddebeb44ba9}, !- Zone Air Inlet Port List
  {0f126bfc-5635-49b0-b279-302ebc1aa739}, !- Zone Air Exhaust Port List
  {42e6c3bb-a866-4a87-a0c8-0a2a916dc97e}, !- Zone Air Node Name
  {55811857-1021-4aa6-8296-f356d1783a14}, !- Zone Return Air Port List
  ,                                       !- Primary Daylighting Control Name
  ,                                       !- Fraction of Zone Controlled by Primary Daylighting Control
  ,                                       !- Secondary Daylighting Control Name
  ,                                       !- Fraction of Zone Controlled by Secondary Daylighting Control
  ,                                       !- Illuminance Map Name
  ,                                       !- Group Rendering Name
  ,                                       !- Thermostat Name
  No;                                     !- Use Ideal Air Loads

OS:Node,
  {31dbc565-9957-4391-b70e-7e9063e543dd}, !- Handle
  Node 2,                                 !- Name
  {42e6c3bb-a866-4a87-a0c8-0a2a916dc97e}, !- Inlet Port
  ;                                       !- Outlet Port

OS:Connection,
  {42e6c3bb-a866-4a87-a0c8-0a2a916dc97e}, !- Handle
  {2d7d6adc-e25b-4516-8611-0635274ac07c}, !- Name
  {230f9104-c57a-4a90-b94a-468df77e85c2}, !- Source Object
  11,                                     !- Outlet Port
  {31dbc565-9957-4391-b70e-7e9063e543dd}, !- Target Object
  2;                                      !- Inlet Port

OS:PortList,
  {fa5ddb89-b05f-45e1-aee6-7ddebeb44ba9}, !- Handle
  {6c982422-7962-467b-87d6-4497ce7b5eab}, !- Name
  {230f9104-c57a-4a90-b94a-468df77e85c2}; !- HVAC Component

OS:PortList,
  {0f126bfc-5635-49b0-b279-302ebc1aa739}, !- Handle
  {58ad3b27-2e2b-4f37-bde6-b039423e3171}, !- Name
  {230f9104-c57a-4a90-b94a-468df77e85c2}; !- HVAC Component

OS:PortList,
  {55811857-1021-4aa6-8296-f356d1783a14}, !- Handle
  {1fc6db4e-cbf5-4fcd-95bf-6b5f2d42ef22}, !- Name
  {230f9104-c57a-4a90-b94a-468df77e85c2}; !- HVAC Component

OS:Sizing:Zone,
  {c46aa24e-b5f0-456e-86c8-eccbfb79a206}, !- Handle
  {230f9104-c57a-4a90-b94a-468df77e85c2}, !- Zone or ZoneList Name
  SupplyAirTemperature,                   !- Zone Cooling Design Supply Air Temperature Input Method
  14,                                     !- Zone Cooling Design Supply Air Temperature {C}
  11.11,                                  !- Zone Cooling Design Supply Air Temperature Difference {deltaC}
  SupplyAirTemperature,                   !- Zone Heating Design Supply Air Temperature Input Method
  40,                                     !- Zone Heating Design Supply Air Temperature {C}
  11.11,                                  !- Zone Heating Design Supply Air Temperature Difference {deltaC}
  0.0085,                                 !- Zone Cooling Design Supply Air Humidity Ratio {kg-H2O/kg-air}
  0.008,                                  !- Zone Heating Design Supply Air Humidity Ratio {kg-H2O/kg-air}
  ,                                       !- Zone Heating Sizing Factor
  ,                                       !- Zone Cooling Sizing Factor
  DesignDay,                              !- Cooling Design Air Flow Method
  ,                                       !- Cooling Design Air Flow Rate {m3/s}
  ,                                       !- Cooling Minimum Air Flow per Zone Floor Area {m3/s-m2}
  ,                                       !- Cooling Minimum Air Flow {m3/s}
  ,                                       !- Cooling Minimum Air Flow Fraction
  DesignDay,                              !- Heating Design Air Flow Method
  ,                                       !- Heating Design Air Flow Rate {m3/s}
  ,                                       !- Heating Maximum Air Flow per Zone Floor Area {m3/s-m2}
  ,                                       !- Heating Maximum Air Flow {m3/s}
  ,                                       !- Heating Maximum Air Flow Fraction
  ,                                       !- Design Zone Air Distribution Effectiveness in Cooling Mode
  ,                                       !- Design Zone Air Distribution Effectiveness in Heating Mode
  No,                                     !- Account for Dedicated Outdoor Air System
  NeutralSupplyAir,                       !- Dedicated Outdoor Air System Control Strategy
  autosize,                               !- Dedicated Outdoor Air Low Setpoint Temperature for Design {C}
  autosize;                               !- Dedicated Outdoor Air High Setpoint Temperature for Design {C}

OS:ZoneHVAC:EquipmentList,
  {94e40e91-6c07-4b5f-8b95-03d99bdec5b2}, !- Handle
  Zone HVAC Equipment List 2,             !- Name
  {230f9104-c57a-4a90-b94a-468df77e85c2}; !- Thermal Zone

OS:Space,
  {1ec84c4e-d196-4c5e-8a10-7d28bdd54f8d}, !- Handle
  garage space,                           !- Name
  {613e03aa-4417-4bad-bd29-adc0c92f17fb}, !- Space Type Name
  ,                                       !- Default Construction Set Name
  ,                                       !- Default Schedule Set Name
  -0,                                     !- Direction of Relative North {deg}
  0,                                      !- X Origin {m}
  0,                                      !- Y Origin {m}
  0,                                      !- Z Origin {m}
  ,                                       !- Building Story Name
  {230f9104-c57a-4a90-b94a-468df77e85c2}; !- Thermal Zone Name

OS:Surface,
  {a85d1d3d-7bea-463a-a69f-3acbdcf43508}, !- Handle
  Surface 1,                              !- Name
  Floor,                                  !- Surface Type
  {0e34c5e4-38d6-4649-a3b7-4192ec8af0e3}, !- Construction Name
  {1ec84c4e-d196-4c5e-8a10-7d28bdd54f8d}, !- Space Name
  Foundation,                             !- Outside Boundary Condition
  {dec062eb-b470-494b-b3e0-c58e51ad9ed8}, !- Outside Boundary Condition Object
  NoSun,                                  !- Sun Exposure
  NoWind,                                 !- Wind Exposure
  ,                                       !- View Factor to Ground
  ,                                       !- Number of Vertices
  12.4316830995045, -3.6576, 0,           !- X,Y,Z Vertex 1 {m}
  12.4316830995045, 3.6576, 0,            !- X,Y,Z Vertex 2 {m}
  16.0892830995045, 3.6576, 0,            !- X,Y,Z Vertex 3 {m}
  16.0892830995045, -3.6576, 0;           !- X,Y,Z Vertex 4 {m}

OS:Surface,
  {8b125634-75c6-4fae-99f1-5454ce3f62d2}, !- Handle
  Surface 2,                              !- Name
  Wall,                                   !- Surface Type
  {a7450161-9501-422e-882c-f2d576363277}, !- Construction Name
  {1ec84c4e-d196-4c5e-8a10-7d28bdd54f8d}, !- Space Name
  Surface,                                !- Outside Boundary Condition
  {1fb2b2a9-ec3d-4e89-8a99-68e53f713dae}, !- Outside Boundary Condition Object
  NoSun,                                  !- Sun Exposure
  NoWind,                                 !- Wind Exposure
  ,                                       !- View Factor to Ground
  ,                                       !- Number of Vertices
  12.4316830995045, 3.6576, 2.4384,       !- X,Y,Z Vertex 1 {m}
  12.4316830995045, 3.6576, 0,            !- X,Y,Z Vertex 2 {m}
  12.4316830995045, 0, 0,                 !- X,Y,Z Vertex 3 {m}
  12.4316830995045, 0, 2.4384;            !- X,Y,Z Vertex 4 {m}

OS:Surface,
  {f7dda1a7-ec38-45d6-b1fa-c936ec9e9c2d}, !- Handle
  Surface 3,                              !- Name
  Wall,                                   !- Surface Type
  {a7450161-9501-422e-882c-f2d576363277}, !- Construction Name
  {1ec84c4e-d196-4c5e-8a10-7d28bdd54f8d}, !- Space Name
  Surface,                                !- Outside Boundary Condition