!- NOTE: Auto-generated from /test/osw_files/SFD_2000sqft_2story_FB_UA_Denver_RoomAC.osw

OS:Version,
  {41bd7f76-a7e1-462b-bc49-79ba221bf3d0}, !- Handle
  2.8.0;                                  !- Version Identifier

OS:SimulationControl,
  {2ab4dab8-5dea-4384-b3b9-e1c302555d29}, !- Handle
  ,                                       !- Do Zone Sizing Calculation
  ,                                       !- Do System Sizing Calculation
  ,                                       !- Do Plant Sizing Calculation
  No;                                     !- Run Simulation for Sizing Periods

OS:Timestep,
  {e673f401-31d5-46f1-9767-fd78a0e7f7fc}, !- Handle
  6;                                      !- Number of Timesteps per Hour

OS:ShadowCalculation,
  {1a2fb4e7-d097-4a18-be61-4fa8493b605c}, !- Handle
  20,                                     !- Calculation Frequency
  200;                                    !- Maximum Figures in Shadow Overlap Calculations

OS:SurfaceConvectionAlgorithm:Outside,
  {d1c168ed-87d5-4296-bb0e-c2a58915e71c}, !- Handle
  DOE-2;                                  !- Algorithm

OS:SurfaceConvectionAlgorithm:Inside,
  {2f9da18e-412a-453d-b0f1-443d18aa6498}, !- Handle
  TARP;                                   !- Algorithm

OS:ZoneCapacitanceMultiplier:ResearchSpecial,
  {f5c5893a-9a13-40a1-9cf1-2039b135621b}, !- Handle
  ,                                       !- Temperature Capacity Multiplier
  15,                                     !- Humidity Capacity Multiplier
  ;                                       !- Carbon Dioxide Capacity Multiplier

OS:RunPeriod,
  {7af1b514-45c4-4c64-b8f6-6250c356ceea}, !- Handle
  Run Period 1,                           !- Name
  1,                                      !- Begin Month
  1,                                      !- Begin Day of Month
  12,                                     !- End Month
  31,                                     !- End Day of Month
  ,                                       !- Use Weather File Holidays and Special Days
  ,                                       !- Use Weather File Daylight Saving Period
  ,                                       !- Apply Weekend Holiday Rule
  ,                                       !- Use Weather File Rain Indicators
  ,                                       !- Use Weather File Snow Indicators
  ;                                       !- Number of Times Runperiod to be Repeated

OS:ThermalZone,
  {e247cdbc-2e6e-485d-81d1-ddbf9d7aeb61}, !- Handle
  living zone,                            !- Name
  ,                                       !- Multiplier
  ,                                       !- Ceiling Height {m}
  ,                                       !- Volume {m3}
  ,                                       !- Floor Area {m2}
  ,                                       !- Zone Inside Convection Algorithm
  ,                                       !- Zone Outside Convection Algorithm
  ,                                       !- Zone Conditioning Equipment List Name
  {fc24bcd7-34ed-414a-ac03-521533abaf9b}, !- Zone Air Inlet Port List
  {231a6941-bb92-4952-96b4-90d949318860}, !- Zone Air Exhaust Port List
  {775d43d9-aaa6-4761-8e19-b24b04d30ef0}, !- Zone Air Node Name
  {58ee0b98-4141-43ea-8d57-36d93b03a6eb}, !- Zone Return Air Port List
  ,                                       !- Primary Daylighting Control Name
  ,                                       !- Fraction of Zone Controlled by Primary Daylighting Control
  ,                                       !- Secondary Daylighting Control Name
  ,                                       !- Fraction of Zone Controlled by Secondary Daylighting Control
  ,                                       !- Illuminance Map Name
  ,                                       !- Group Rendering Name
  {a7b24da0-10ab-4a27-81ed-0c8f9b0e8bd6}, !- Thermostat Name
  No;                                     !- Use Ideal Air Loads

OS:Node,
  {ecab7df1-3d3b-485c-adcd-eec56454dd39}, !- Handle
  Node 1,                                 !- Name
  {775d43d9-aaa6-4761-8e19-b24b04d30ef0}, !- Inlet Port
  ;                                       !- Outlet Port

OS:Connection,
  {775d43d9-aaa6-4761-8e19-b24b04d30ef0}, !- Handle
  {e110809d-a360-44d5-9413-bb2aa5f526f1}, !- Name
  {e247cdbc-2e6e-485d-81d1-ddbf9d7aeb61}, !- Source Object
  11,                                     !- Outlet Port
  {ecab7df1-3d3b-485c-adcd-eec56454dd39}, !- Target Object
  2;                                      !- Inlet Port

OS:PortList,
  {fc24bcd7-34ed-414a-ac03-521533abaf9b}, !- Handle
  {56a592a1-eb06-4636-886e-9228254f259f}, !- Name
  {e247cdbc-2e6e-485d-81d1-ddbf9d7aeb61}, !- HVAC Component
  {e104c123-1ff2-46f1-9e5f-7666721b176c}; !- Port 1

OS:PortList,
  {231a6941-bb92-4952-96b4-90d949318860}, !- Handle
  {af71771d-d69b-45a3-b8e9-229dd063af55}, !- Name
  {e247cdbc-2e6e-485d-81d1-ddbf9d7aeb61}, !- HVAC Component
  {ce6de73c-674e-4496-b320-5c81f0e7b9b2}; !- Port 1

OS:PortList,
  {58ee0b98-4141-43ea-8d57-36d93b03a6eb}, !- Handle
  {0612ae85-23e7-4085-b35a-a687b9e802d1}, !- Name
  {e247cdbc-2e6e-485d-81d1-ddbf9d7aeb61}; !- HVAC Component

OS:Sizing:Zone,
  {a6be2adf-4201-420b-917d-290ed0417ce1}, !- Handle
  {e247cdbc-2e6e-485d-81d1-ddbf9d7aeb61}, !- Zone or ZoneList Name
  SupplyAirTemperature,                   !- Zone Cooling Design Supply Air Temperature Input Method
  14,                                     !- Zone Cooling Design Supply Air Temperature {C}
  11.11,                                  !- Zone Cooling Design Supply Air Temperature Difference {deltaC}
  SupplyAirTemperature,                   !- Zone Heating Design Supply Air Temperature Input Method
  40,                                     !- Zone Heating Design Supply Air Temperature {C}
  11.11,                                  !- Zone Heating Design Supply Air Temperature Difference {deltaC}
  0.0085,                                 !- Zone Cooling Design Supply Air Humidity Ratio {kg-H2O/kg-air}
  0.008,                                  !- Zone Heating Design Supply Air Humidity Ratio {kg-H2O/kg-air}
  ,                                       !- Zone Heating Sizing Factor
  ,                                       !- Zone Cooling Sizing Factor
  DesignDay,                              !- Cooling Design Air Flow Method
  ,                                       !- Cooling Design Air Flow Rate {m3/s}
  ,                                       !- Cooling Minimum Air Flow per Zone Floor Area {m3/s-m2}
  ,                                       !- Cooling Minimum Air Flow {m3/s}
  ,                                       !- Cooling Minimum Air Flow Fraction
  DesignDay,                              !- Heating Design Air Flow Method
  ,                                       !- Heating Design Air Flow Rate {m3/s}
  ,                                       !- Heating Maximum Air Flow per Zone Floor Area {m3/s-m2}
  ,                                       !- Heating Maximum Air Flow {m3/s}
  ,                                       !- Heating Maximum Air Flow Fraction
  ,                                       !- Design Zone Air Distribution Effectiveness in Cooling Mode
  ,                                       !- Design Zone Air Distribution Effectiveness in Heating Mode
  No,                                     !- Account for Dedicated Outdoor Air System
  NeutralSupplyAir,                       !- Dedicated Outdoor Air System Control Strategy
  autosize,                               !- Dedicated Outdoor Air Low Setpoint Temperature for Design {C}
  autosize;                               !- Dedicated Outdoor Air High Setpoint Temperature for Design {C}

OS:ZoneHVAC:EquipmentList,
  {e5d8e636-511e-4e41-8e67-9060c6a1c266}, !- Handle
  Zone HVAC Equipment List 1,             !- Name
  {e247cdbc-2e6e-485d-81d1-ddbf9d7aeb61}, !- Thermal Zone
  SequentialLoad,                         !- Load Distribution Scheme
  {5c64a408-fc1f-475b-be80-fa0663425dd6}, !- Zone Equipment 1
  1,                                      !- Zone Equipment Cooling Sequence 1
  1,                                      !- Zone Equipment Heating or No-Load Sequence 1
  ,                                       !- Zone Equipment Sequential Cooling Fraction 1
  ;                                       !- Zone Equipment Sequential Heating Fraction 1

OS:ThermalZone,
  {f7170aeb-ab6f-4382-b1a2-889005fef978}, !- Handle
  garage zone,                            !- Name
  ,                                       !- Multiplier
  ,                                       !- Ceiling Height {m}
  ,                                       !- Volume {m3}
  ,                                       !- Floor Area {m2}
  ,                                       !- Zone Inside Convection Algorithm
  ,                                       !- Zone Outside Convection Algorithm
  ,                                       !- Zone Conditioning Equipment List Name
  {ebc63e80-96d5-4144-85aa-9b46563152dd}, !- Zone Air Inlet Port List
  {5a142345-210e-46f2-870c-ba7e7ef8779f}, !- Zone Air Exhaust Port List
  {18468fda-0132-4ab9-a56b-82d40a2a1483}, !- Zone Air Node Name
  {fa8765eb-27ac-47d7-ab5c-c385024c9702}, !- Zone Return Air Port List
  ,                                       !- Primary Daylighting Control Name
  ,                                       !- Fraction of Zone Controlled by Primary Daylighting Control
  ,                                       !- Secondary Daylighting Control Name
  ,                                       !- Fraction of Zone Controlled by Secondary Daylighting Control
  ,                                       !- Illuminance Map Name
  ,                                       !- Group Rendering Name
  ,                                       !- Thermostat Name
  No;                                     !- Use Ideal Air Loads

OS:Node,
  {b26bcecc-e86b-4d84-b0de-e37a9f8784ca}, !- Handle
  Node 2,                                 !- Name
  {18468fda-0132-4ab9-a56b-82d40a2a1483}, !- Inlet Port
  ;                                       !- Outlet Port

OS:Connection,
  {18468fda-0132-4ab9-a56b-82d40a2a1483}, !- Handle
  {3ac1eb87-1967-4038-8685-f946ccced878}, !- Name
  {f7170aeb-ab6f-4382-b1a2-889005fef978}, !- Source Object
  11,                                     !- Outlet Port
  {b26bcecc-e86b-4d84-b0de-e37a9f8784ca}, !- Target Object
  2;                                      !- Inlet Port

OS:PortList,
  {ebc63e80-96d5-4144-85aa-9b46563152dd}, !- Handle
  {37f27ac2-9256-43ef-8b06-a0f5905b0422}, !- Name
  {f7170aeb-ab6f-4382-b1a2-889005fef978}; !- HVAC Component

OS:PortList,
  {5a142345-210e-46f2-870c-ba7e7ef8779f}, !- Handle
  {0912e429-ac9c-4cef-9ce2-41828be36e44}, !- Name
  {f7170aeb-ab6f-4382-b1a2-889005fef978}; !- HVAC Component

OS:PortList,
  {fa8765eb-27ac-47d7-ab5c-c385024c9702}, !- Handle
  {7bed410e-1b38-4fd6-98f6-20735c174a1d}, !- Name
  {f7170aeb-ab6f-4382-b1a2-889005fef978}; !- HVAC Component

OS:Sizing:Zone,
  {24c10da8-3a9e-438f-96ad-fcc85d2e0ad2}, !- Handle
  {f7170aeb-ab6f-4382-b1a2-889005fef978}, !- Zone or ZoneList Name
  SupplyAirTemperature,                   !- Zone Cooling Design Supply Air Temperature Input Method
  14,                                     !- Zone Cooling Design Supply Air Temperature {C}
  11.11,                                  !- Zone Cooling Design Supply Air Temperature Difference {deltaC}
  SupplyAirTemperature,                   !- Zone Heating Design Supply Air Temperature Input Method
  40,                                     !- Zone Heating Design Supply Air Temperature {C}
  11.11,                                  !- Zone Heating Design Supply Air Temperature Difference {deltaC}
  0.0085,                                 !- Zone Cooling Design Supply Air Humidity Ratio {kg-H2O/kg-air}
  0.008,                                  !- Zone Heating Design Supply Air Humidity Ratio {kg-H2O/kg-air}
  ,                                       !- Zone Heating Sizing Factor
  ,                                       !- Zone Cooling Sizing Factor
  DesignDay,                              !- Cooling Design Air Flow Method
  ,                                       !- Cooling Design Air Flow Rate {m3/s}
  ,                                       !- Cooling Minimum Air Flow per Zone Floor Area {m3/s-m2}
  ,                                       !- Cooling Minimum Air Flow {m3/s}
  ,                                       !- Cooling Minimum Air Flow Fraction
  DesignDay,                              !- Heating Design Air Flow Method
  ,                                       !- Heating Design Air Flow Rate {m3/s}
  ,                                       !- Heating Maximum Air Flow per Zone Floor Area {m3/s-m2}
  ,                                       !- Heating Maximum Air Flow {m3/s}
  ,                                       !- Heating Maximum Air Flow Fraction
  ,                                       !- Design Zone Air Distribution Effectiveness in Cooling Mode
  ,                                       !- Design Zone Air Distribution Effectiveness in Heating Mode
  No,                                     !- Account for Dedicated Outdoor Air System
  NeutralSupplyAir,                       !- Dedicated Outdoor Air System Control Strategy
  autosize,                               !- Dedicated Outdoor Air Low Setpoint Temperature for Design {C}
  autosize;                               !- Dedicated Outdoor Air High Setpoint Temperature for Design {C}

OS:ZoneHVAC:EquipmentList,
  {c3ab885f-1324-4ff8-962b-cbd365305d73}, !- Handle
  Zone HVAC Equipment List 2,             !- Name
  {f7170aeb-ab6f-4382-b1a2-889005fef978}; !- Thermal Zone

OS:Space,
  {fc11af46-7237-4931-8941-ca3453d83aee}, !- Handle
  garage space,                           !- Name
  {0cb6f4d2-a7ba-496e-988f-3bfdb888820f}, !- Space Type Name
  ,                                       !- Default Construction Set Name
  ,                                       !- Default Schedule Set Name
  -0,                                     !- Direction of Relative North {deg}
  0,                                      !- X Origin {m}
  0,                                      !- Y Origin {m}
  0,                                      !- Z Origin {m}
  ,                                       !- Building Story Name
  {f7170aeb-ab6f-4382-b1a2-889005fef978}; !- Thermal Zone Name

OS:Surface,
  {426b8c6e-a2c2-455c-93a3-ef0b8a823495}, !- Handle
  Surface 1,                              !- Name
  Floor,                                  !- Surface Type
  ,                                       !- Construction Name
  {fc11af46-7237-4931-8941-ca3453d83aee}, !- Space Name
  Foundation,                             !- Outside Boundary Condition
  ,                                       !- Outside Boundary Condition Object
  NoSun,                                  !- Sun Exposure
  NoWind,                                 !- Wind Exposure
  ,                                       !- View Factor to Ground
  ,                                       !- Number of Vertices
  5.57695129776527, -3.048, 0,            !- X,Y,Z Vertex 1 {m}
  5.57695129776527, 3.048, 0,             !- X,Y,Z Vertex 2 {m}
  11.6729512977653, 3.048, 0,             !- X,Y,Z Vertex 3 {m}
  11.6729512977653, -3.048, 0;            !- X,Y,Z Vertex 4 {m}

OS:Surface,
  {0b521f9b-6d98-4ad8-883c-811999e9e185}, !- Handle
  Surface 2,                              !- Name
  Wall,                                   !- Surface Type
  ,                                       !- Construction Name
  {fc11af46-7237-4931-8941-ca3453d83aee}, !- Space Name
  Surface,                                !- Outside Boundary Condition
  {ed917f86-50b7-4627-a560-86e715a7000a}, !- Outside Boundary Condition Object
  NoSun,                                  !- Sun Exposure
  NoWind,                                 !- Wind Exposure
  ,                                       !- View Factor to Ground
  ,                                       !- Number of Vertices
  5.57695129776527, 3.048, 2.4384,        !- X,Y,Z Vertex 1 {m}
  5.57695129776527, 3.048, 0,             !- X,Y,Z Vertex 2 {m}
  5.57695129776527, 0, 0,                 !- X,Y,Z Vertex 3 {m}
  5.57695129776527, 0, 2.4384;            !- X,Y,Z Vertex 4 {m}

OS:Surface,
  {030498ee-3ab2-406a-85b9-8ffa6c3a7013}, !- Handle
  Surface 3,                              !- Name
  Wall,                                   !- Surface Type
  ,                                       !- Construction Name
  {fc11af46-7237-4931-8941-ca3453d83aee}, !- Space Name
  Surface,                                !- Outside Boundary Condition
  {0f81ca33-d493-4589-a3bd-81def6bcb47c}, !- Outside Boundary Condition Object
  NoSun,                                  !- Sun Exposure
  NoWind,                                 !- Wind Exposure
  ,                                       !- View Factor to Ground
  ,                                       !- Number of Vertices
  11.6729512977653, 3.048, 2.4384,        !- X,Y,Z Vertex 1 {m}
  11.6729512977653, 3.048, 0,             !- X,Y,Z Vertex 2 {m}
  5.57695129776527, 3.048, 0,             !- X,Y,Z Vertex 3 {m}
  5.57695129776527, 3.048, 2.4384;        !- X,Y,Z Vertex 4 {m}

OS:Surface,
  {d9e81a33-ebd7-4ccf-bf4e-ecee717cdac6}, !- Handle
  Surface 4,                              !- Name
  Wall,                                   !- Surface Type
  ,                                       !- Construction Name
  {fc11af46-7237-4931-8941-ca3453d83aee}, !- Space Name
  Outdoors,                               !- Outside Boundary Condition
  ,                                       !- Outside Boundary Condition Object
  SunExposed,                             !- Sun Exposure
  WindExposed,                            !- Wind Exposure
  ,                                       !- View Factor to Ground
  ,                                       !- Number of Vertices
  11.6729512977653, -3.048, 2.4384,       !- X,Y,Z Vertex 1 {m}
  11.6729512977653, -3.048, 0,            !- X,Y,Z Vertex 2 {m}
  11.6729512977653, 3.048, 0,             !- X,Y,Z Vertex 3 {m}
  11.6729512977653, 3.048, 2.4384;        !- X,Y,Z Vertex 4 {m}

OS:Surface,
  {ddc5bae7-a3ed-41db-ace9-889fb8f3878d}, !- Handle
  Surface 5,                              !- Name
  Wall,                                   !- Surface Type
  ,                                       !- Construction Name
  {fc11af46-7237-4931-8941-ca3453d83aee}, !- Space Name
  Outdoors,                               !- Outside Boundary Condition
  ,                                       !- Outside Boundary Condition Object
  SunExposed,                             !- Sun Exposure
  WindExposed,                            !- Wind Exposure
  ,                                       !- View Factor to Ground
  ,                                       !- Number of Vertices
  5.57695129776527, -3.048, 2.4384,       !- X,Y,Z Vertex 1 {m}
  5.57695129776527, -3.048, 0,            !- X,Y,Z Vertex 2 {m}
  11.6729512977653, -3.048, 0,            !- X,Y,Z Vertex 3 {m}
  11.6729512977653, -3.048, 2.4384;       !- X,Y,Z Vertex 4 {m}

OS:Surface,
  {2b412aa4-a6a6-48fd-ba50-1a13b430598e}, !- Handle
  Surface 6,                              !- Name
  RoofCeiling,                            !- Surface Type
  ,                                       !- Construction Name
  {fc11af46-7237-4931-8941-ca3453d83aee}, !- Space Name
  Surface,                                !- Outside Boundary Condition
  {ec7c2a73-8f68-4426-b0c6-1bc6b976e240}, !- Outside Boundary Condition Object
  NoSun,                                  !- Sun Exposure
  NoWind,                                 !- Wind Exposure
  ,                                       !- View Factor to Ground
  ,                                       !- Number of Vertices
  11.6729512977653, -3.048, 2.4384,       !- X,Y,Z Vertex 1 {m}
  11.6729512977653, 3.048, 2.4384,        !- X,Y,Z Vertex 2 {m}
  5.57695129776527, 3.048, 2.4384,        !- X,Y,Z Vertex 3 {m}
  5.57695129776527, -3.048, 2.4384;       !- X,Y,Z Vertex 4 {m}

OS:SpaceType,
  {0cb6f4d2-a7ba-496e-988f-3bfdb888820f}, !- Handle
  Space Type 1,                           !- Name
  ,                                       !- Default Construction Set Name
  ,                                       !- Default Schedule Set Name
  ,                                       !- Group Rendering Name
  ,                                       !- Design Specification Outdoor Air Object Name
  ,                                       !- Standards Template
  ,                                       !- Standards Building Type
  garage;                                 !- Standards Space Type

OS:Space,
  {2833db92-711c-431f-a889-706ddebe966b}, !- Handle
  living space,                           !- Name
  {20f73903-9f9d-4dca-94ad-b85f3673962a}, !- Space Type Name
  ,                                       !- Default Construction Set Name
  ,                                       !- Default Schedule Set Name
  -0,                                     !- Direction of Relative North {deg}
  0,                                      !- X Origin {m}
  0,                                      !- Y Origin {m}
  0,                                      !- Z Origin {m}
  ,                                       !- Building Story Name
  {e247cdbc-2e6e-485d-81d1-ddbf9d7aeb61}, !- Thermal Zone Name
  ,                                       !- Part of Total Floor Area
  ,                                       !- Design Specification Outdoor Air Object Name
  {2fc9829b-4dca-4bb6-8b9d-8ed783935d85}; !- Building Unit Name

OS:Surface,
  {08c8b5f5-9cc5-488f-a8e8-006adb22330e}, !- Handle
  Surface 7,                              !- Name
  Floor,                                  !- Surface Type
  ,                                       !- Construction Name
  {2833db92-711c-431f-a889-706ddebe966b}, !- Space Name
  Surface,                                !- Outside Boundary Condition
  {1c7c4a47-2def-415c-8ba2-38e9304dbece}, !- Outside Boundary Condition Object
  NoSun,                                  !- Sun Exposure
  NoWind,                                 !- Wind Exposure
  ,                                       !- View Factor to Ground
  ,                                       !- Number of Vertices
  0, 0, 0,                                !- X,Y,Z Vertex 1 {m}
  0, 5.83647564888264, 0,                 !- X,Y,Z Vertex 2 {m}
  11.6729512977653, 5.83647564888264, 0,  !- X,Y,Z Vertex 3 {m}
  11.6729512977653, 3.048, 0,             !- X,Y,Z Vertex 4 {m}
  5.57695129776527, 3.048, 0,             !- X,Y,Z Vertex 5 {m}
  5.57695129776527, 0, 0;                 !- X,Y,Z Vertex 6 {m}

OS:Surface,
  {6bd9d324-6c63-488a-a9b4-3ea05413cc1a}, !- Handle
  Surface 8,                              !- Name
  Wall,                                   !- Surface Type
  ,                                       !- Construction Name
  {2833db92-711c-431f-a889-706ddebe966b}, !- Space Name
  Outdoors,                               !- Outside Boundary Condition
  ,                                       !- Outside Boundary Condition Object
  SunExposed,                             !- Sun Exposure
  WindExposed,                            !- Wind Exposure
  ,                                       !- View Factor to Ground
  ,                                       !- Number of Vertices
  0, 5.83647564888264, 2.4384,            !- X,Y,Z Vertex 1 {m}
  0, 5.83647564888264, 0,                 !- X,Y,Z Vertex 2 {m}
  0, 0, 0,                                !- X,Y,Z Vertex 3 {m}
  0, 0, 2.4384;                           !- X,Y,Z Vertex 4 {m}

OS:Surface,
  {29da6abb-1ecf-4634-b89c-a76e77f45391}, !- Handle
  Surface 9,                              !- Name
  Wall,                                   !- Surface Type
  ,                                       !- Construction Name
  {2833db92-711c-431f-a889-706ddebe966b}, !- Space Name
  Outdoors,                               !- Outside Boundary Condition
  ,                                       !- Outside Boundary Condition Object
  SunExposed,                             !- Sun Exposure
  WindExposed,                            !- Wind Exposure
  ,                                       !- View Factor to Ground
  ,                                       !- Number of Vertices
  11.6729512977653, 5.83647564888264, 2.4384, !- X,Y,Z Vertex 1 {m}
  11.6729512977653, 5.83647564888264, 0,  !- X,Y,Z Vertex 2 {m}
  0, 5.83647564888264, 0,                 !- X,Y,Z Vertex 3 {m}
  0, 5.83647564888264, 2.4384;            !- X,Y,Z Vertex 4 {m}

OS:Surface,
  {f90adaf7-f4f5-4ce7-a66f-f95db8ffcd96}, !- Handle
  Surface 10,                             !- Name
  Wall,                                   !- Surface Type
  ,                                       !- Construction Name
  {2833db92-711c-431f-a889-706ddebe966b}, !- Space Name
  Outdoors,                               !- Outside Boundary Condition
  ,                                       !- Outside Boundary Condition Object
  SunExposed,                             !- Sun Exposure
  WindExposed,                            !- Wind Exposure
  ,                                       !- View Factor to Ground
  ,                                       !- Number of Vertices
  11.6729512977653, 3.048, 2.4384,        !- X,Y,Z Vertex 1 {m}
  11.6729512977653, 3.048, 0,             !- X,Y,Z Vertex 2 {m}
  11.6729512977653, 5.83647564888264, 0,  !- X,Y,Z Vertex 3 {m}
  11.6729512977653, 5.83647564888264, 2.4384; !- X,Y,Z Vertex 4 {m}

OS:Surface,
  {0f81ca33-d493-4589-a3bd-81def6bcb47c}, !- Handle
  Surface 11,                             !- Name
  Wall,                                   !- Surface Type
  ,                                       !- Construction Name
  {2833db92-711c-431f-a889-706ddebe966b}, !- Space Name
  Surface,                                !- Outside Boundary Condition
  {030498ee-3ab2-406a-85b9-8ffa6c3a7013}, !- Outside Boundary Condition Object
  NoSun,                                  !- Sun Exposure
  NoWind,                                 !- Wind Exposure
  ,                                       !- View Factor to Ground
  ,                                       !- Number of Vertices
  5.57695129776527, 3.048, 2.4384,        !- X,Y,Z Vertex 1 {m}
  5.57695129776527, 3.048, 0,             !- X,Y,Z Vertex 2 {m}
  11.6729512977653, 3.048, 0,             !- X,Y,Z Vertex 3 {m}
  11.6729512977653, 3.048, 2.4384;        !- X,Y,Z Vertex 4 {m}

OS:Surface,
  {ed917f86-50b7-4627-a560-86e715a7000a}, !- Handle
  Surface 12,                             !- Name
  Wall,                                   !- Surface Type
  ,                                       !- Construction Name
  {2833db92-711c-431f-a889-706ddebe966b}, !- Space Name
  Surface,                                !- Outside Boundary Condition
  {0b521f9b-6d98-4ad8-883c-811999e9e185}, !- Outside Boundary Condition Object
  NoSun,                                  !- Sun Exposure
  NoWind,                                 !- Wind Exposure
  ,                                       !- View Factor to Ground
  ,                                       !- Number of Vertices
  5.57695129776527, 0, 2.4384,            !- X,Y,Z Vertex 1 {m}
  5.57695129776527, 0, 0,                 !- X,Y,Z Vertex 2 {m}
  5.57695129776527, 3.048, 0,             !- X,Y,Z Vertex 3 {m}
  5.57695129776527, 3.048, 2.4384;        !- X,Y,Z Vertex 4 {m}

OS:Surface,
  {1d1e6abb-27be-4020-ab99-e87c5ccf4917}, !- Handle
  Surface 13,                             !- Name
  Wall,                                   !- Surface Type
  ,                                       !- Construction Name
  {2833db92-711c-431f-a889-706ddebe966b}, !- Space Name
  Outdoors,                               !- Outside Boundary Condition
  ,                                       !- Outside Boundary Condition Object
  SunExposed,                             !- Sun Exposure
  WindExposed,                            !- Wind Exposure
  ,                                       !- View Factor to Ground
  ,                                       !- Number of Vertices
  0, 0, 2.4384,                           !- X,Y,Z Vertex 1 {m}
  0, 0, 0,                                !- X,Y,Z Vertex 2 {m}
  5.57695129776527, 0, 0,                 !- X,Y,Z Vertex 3 {m}
  5.57695129776527, 0, 2.4384;            !- X,Y,Z Vertex 4 {m}

OS:Surface,
  {22bf25f8-0839-4404-889a-483576cb2257}, !- Handle
  Surface 14,                             !- Name
  RoofCeiling,                            !- Surface Type
  ,                                       !- Construction Name
  {2833db92-711c-431f-a889-706ddebe966b}, !- Space Name
  Surface,                                !- Outside Boundary Condition
  {b2496dd6-d20c-4a0d-ac0d-88afd0d595b9}, !- Outside Boundary Condition Object
  NoSun,                                  !- Sun Exposure
  NoWind,                                 !- Wind Exposure
  ,                                       !- View Factor to Ground
  ,                                       !- Number of Vertices
  5.57695129776527, 0, 2.4384,            !- X,Y,Z Vertex 1 {m}
  5.57695129776527, 3.048, 2.4384,        !- X,Y,Z Vertex 2 {m}
  11.6729512977653, 3.048, 2.4384,        !- X,Y,Z Vertex 3 {m}
  11.6729512977653, 5.83647564888264, 2.4384, !- X,Y,Z Vertex 4 {m}
  0, 5.83647564888264, 2.4384,            !- X,Y,Z Vertex 5 {m}
  0, 0, 2.4384;                           !- X,Y,Z Vertex 6 {m}

OS:SpaceType,
  {20f73903-9f9d-4dca-94ad-b85f3673962a}, !- Handle
  Space Type 2,                           !- Name
  ,                                       !- Default Construction Set Name
  ,                                       !- Default Schedule Set Name
  ,                                       !- Group Rendering Name
  ,                                       !- Design Specification Outdoor Air Object Name
  ,                                       !- Standards Template
  ,                                       !- Standards Building Type