!- NOTE: Auto-generated from /test/osw_files/SFD_2000sqft_2story_FB_GRG_UA_3Beds_2Baths_Denver_South_GasWHTank.osw

OS:Version,
  {49350da3-90f2-4302-a9e3-98a71ad74757}, !- Handle
  2.8.0;                                  !- Version Identifier

OS:Building,
  {0b5a8fc0-15c1-4e56-803f-32daaa5feb29}, !- Handle
  Building 1,                             !- Name
  ,                                       !- Building Sector Type
  0,                                      !- North Axis {deg}
  ,                                       !- Nominal Floor to Floor Height {m}
  ,                                       !- Space Type Name
  ,                                       !- Default Construction Set Name
  ,                                       !- Default Schedule Set Name
  3,                                      !- Standards Number of Stories
  2,                                      !- Standards Number of Above Ground Stories
  ,                                       !- Standards Template
  singlefamilydetached,                   !- Standards Building Type
  1;                                      !- Standards Number of Living Units

OS:Facility,
  {f7246070-1c06-4539-85f9-1b84a4507f64}; !- Handle

OS:Site,
  {cc7d4bd8-be62-4675-88ba-09da40801e85}, !- Handle
  Denver Intl Ap_CO_USA,                  !- Name
  39.83,                                  !- Latitude {deg}
  -104.65,                                !- Longitude {deg}
  -7,                                     !- Time Zone {hr}
  1650,                                   !- Elevation {m}
  ;                                       !- Terrain

OS:SimulationControl,
  {06179339-134d-4254-8e59-95e3893b0137}, !- Handle
  ,                                       !- Do Zone Sizing Calculation
  ,                                       !- Do System Sizing Calculation
  ,                                       !- Do Plant Sizing Calculation
  No;                                     !- Run Simulation for Sizing Periods

OS:Sizing:Parameters,
  {a5736b63-42c5-4315-8b17-768dd01440a3}, !- Handle
  1.25,                                   !- Heating Sizing Factor
  1.15;                                   !- Cooling Sizing Factor

OS:Timestep,
  {32b09865-e2dc-45fe-835e-44a157b3588f}, !- Handle
  6;                                      !- Number of Timesteps per Hour

OS:ShadowCalculation,
  {afd0db6b-e8d9-4a02-9193-af45b0c4b700}, !- Handle
  20,                                     !- Calculation Frequency
  200;                                    !- Maximum Figures in Shadow Overlap Calculations

OS:HeatBalanceAlgorithm,
  {b4460e72-ffa8-4ab6-abab-dbfcd32c7aac}, !- Handle
  ConductionTransferFunction,             !- Algorithm
  200;                                    !- Surface Temperature Upper Limit {C}

OS:RunPeriod,
  {defcad86-8b6a-465a-ae73-70b8539e202d}, !- Handle
  Run Period 1,                           !- Name
  1,                                      !- Begin Month
  1,                                      !- Begin Day of Month
  12,                                     !- End Month
  31,                                     !- End Day of Month
  ,                                       !- Use Weather File Holidays and Special Days
  ,                                       !- Use Weather File Daylight Saving Period
  ,                                       !- Apply Weekend Holiday Rule
  ,                                       !- Use Weather File Rain Indicators
  ,                                       !- Use Weather File Snow Indicators
  ;                                       !- Number of Times Runperiod to be Repeated

OS:LifeCycleCost:Parameters,
  {7186ddce-0e6a-4eba-ba7a-db96229e0382}, !- Handle
  ,                                       !- Analysis Type
  ,                                       !- Discounting Convention
  ,                                       !- Inflation Approach
  ,                                       !- Real Discount Rate
  ,                                       !- Nominal Discount Rate
  ,                                       !- Inflation
  ,                                       !- Base Date Month
  ,                                       !- Base Date Year
  ,                                       !- Service Date Month
  ,                                       !- Service Date Year
  ;                                       !- Length of Study Period in Years

OS:SurfaceConvectionAlgorithm:Outside,
  {e156a968-c750-480f-b76a-fb1bcef71480}, !- Handle
  DOE-2;                                  !- Algorithm

OS:SurfaceConvectionAlgorithm:Inside,
  {2d534fb4-d4c1-4e41-a303-5a38bc145799}, !- Handle
  TARP;                                   !- Algorithm

OS:ZoneCapacitanceMultiplier:ResearchSpecial,
  {7fed8ec7-2736-4679-8ca1-fbf34d1f3c1b}, !- Handle
  ,                                       !- Temperature Capacity Multiplier
  15,                                     !- Humidity Capacity Multiplier
  ;                                       !- Carbon Dioxide Capacity Multiplier

OS:ThermalZone,
  {130d4c25-0b50-407f-9ce0-7f5c0f104c0b}, !- Handle
  living zone,                            !- Name
  ,                                       !- Multiplier
  ,                                       !- Ceiling Height {m}
  ,                                       !- Volume {m3}
  ,                                       !- Floor Area {m2}
  ,                                       !- Zone Inside Convection Algorithm
  ,                                       !- Zone Outside Convection Algorithm
  ,                                       !- Zone Conditioning Equipment List Name
  {22159220-e452-4ac0-bdff-5dd027d2a66e}, !- Zone Air Inlet Port List
  {c7a3ecf9-ed09-46d5-a08f-79730f85cf56}, !- Zone Air Exhaust Port List
  {1a9816fd-c55e-4115-8c32-50858e49c7ea}, !- Zone Air Node Name
  {d3f0ff57-9643-495c-bd12-b4680450c35b}, !- Zone Return Air Port List
  ,                                       !- Primary Daylighting Control Name
  ,                                       !- Fraction of Zone Controlled by Primary Daylighting Control
  ,                                       !- Secondary Daylighting Control Name
  ,                                       !- Fraction of Zone Controlled by Secondary Daylighting Control
  ,                                       !- Illuminance Map Name
  ,                                       !- Group Rendering Name
  ,                                       !- Thermostat Name
  No;                                     !- Use Ideal Air Loads

OS:Node,
  {e5e790e3-47c6-4641-9784-62c94e04fccc}, !- Handle
  Node 1,                                 !- Name
  {1a9816fd-c55e-4115-8c32-50858e49c7ea}, !- Inlet Port
  ;                                       !- Outlet Port

OS:Connection,
  {1a9816fd-c55e-4115-8c32-50858e49c7ea}, !- Handle
  {0872390e-c71f-4fc3-9ca8-d232410b8551}, !- Name
  {130d4c25-0b50-407f-9ce0-7f5c0f104c0b}, !- Source Object
  11,                                     !- Outlet Port
  {e5e790e3-47c6-4641-9784-62c94e04fccc}, !- Target Object
  2;                                      !- Inlet Port

OS:PortList,
  {22159220-e452-4ac0-bdff-5dd027d2a66e}, !- Handle
  {852a5dc6-4661-47d9-b827-b5e2432bf57b}, !- Name
  {130d4c25-0b50-407f-9ce0-7f5c0f104c0b}; !- HVAC Component

OS:PortList,
  {c7a3ecf9-ed09-46d5-a08f-79730f85cf56}, !- Handle
  {87d0ab4c-b2f4-4dce-80ad-8760bb4f3473}, !- Name
  {130d4c25-0b50-407f-9ce0-7f5c0f104c0b}; !- HVAC Component

OS:PortList,
  {d3f0ff57-9643-495c-bd12-b4680450c35b}, !- Handle
  {47c888be-a8f6-4cd4-ad02-1f469da373b2}, !- Name
  {130d4c25-0b50-407f-9ce0-7f5c0f104c0b}; !- HVAC Component

OS:Sizing:Zone,
  {2a586715-79e8-47e7-8104-6eb6ac985512}, !- Handle
  {130d4c25-0b50-407f-9ce0-7f5c0f104c0b}, !- Zone or ZoneList Name
  SupplyAirTemperature,                   !- Zone Cooling Design Supply Air Temperature Input Method
  14,                                     !- Zone Cooling Design Supply Air Temperature {C}
  11.11,                                  !- Zone Cooling Design Supply Air Temperature Difference {deltaC}
  SupplyAirTemperature,                   !- Zone Heating Design Supply Air Temperature Input Method
  40,                                     !- Zone Heating Design Supply Air Temperature {C}
  11.11,                                  !- Zone Heating Design Supply Air Temperature Difference {deltaC}
  0.0085,                                 !- Zone Cooling Design Supply Air Humidity Ratio {kg-H2O/kg-air}
  0.008,                                  !- Zone Heating Design Supply Air Humidity Ratio {kg-H2O/kg-air}
  ,                                       !- Zone Heating Sizing Factor
  ,                                       !- Zone Cooling Sizing Factor
  DesignDay,                              !- Cooling Design Air Flow Method
  ,                                       !- Cooling Design Air Flow Rate {m3/s}
  ,                                       !- Cooling Minimum Air Flow per Zone Floor Area {m3/s-m2}
  ,                                       !- Cooling Minimum Air Flow {m3/s}
  ,                                       !- Cooling Minimum Air Flow Fraction
  DesignDay,                              !- Heating Design Air Flow Method
  ,                                       !- Heating Design Air Flow Rate {m3/s}
  ,                                       !- Heating Maximum Air Flow per Zone Floor Area {m3/s-m2}
  ,                                       !- Heating Maximum Air Flow {m3/s}
  ,                                       !- Heating Maximum Air Flow Fraction
  ,                                       !- Design Zone Air Distribution Effectiveness in Cooling Mode
  ,                                       !- Design Zone Air Distribution Effectiveness in Heating Mode
  No,                                     !- Account for Dedicated Outdoor Air System
  NeutralSupplyAir,                       !- Dedicated Outdoor Air System Control Strategy
  autosize,                               !- Dedicated Outdoor Air Low Setpoint Temperature for Design {C}
  autosize;                               !- Dedicated Outdoor Air High Setpoint Temperature for Design {C}

OS:ZoneHVAC:EquipmentList,
  {b59fdfa6-ee80-489c-ba00-ba82780a8923}, !- Handle
  Zone HVAC Equipment List 1,             !- Name
  {130d4c25-0b50-407f-9ce0-7f5c0f104c0b}; !- Thermal Zone

OS:ThermalZone,
  {8bcba8a1-f6e7-4c57-8093-d98bd205e69a}, !- Handle
  garage zone,                            !- Name
  ,                                       !- Multiplier
  ,                                       !- Ceiling Height {m}
  ,                                       !- Volume {m3}
  ,                                       !- Floor Area {m2}
  ,                                       !- Zone Inside Convection Algorithm
  ,                                       !- Zone Outside Convection Algorithm
  ,                                       !- Zone Conditioning Equipment List Name
  {ffa56f68-0dfb-4dae-b8a3-c0a45f6ac623}, !- Zone Air Inlet Port List
  {bac099a7-3ca3-41d6-a314-94aa85190519}, !- Zone Air Exhaust Port List
  {584f424d-5081-49f1-ac2d-f72a3fe388ce}, !- Zone Air Node Name
  {0f502be1-a013-43c0-96a5-bce59be5b9ba}, !- Zone Return Air Port List
  ,                                       !- Primary Daylighting Control Name
  ,                                       !- Fraction of Zone Controlled by Primary Daylighting Control
  ,                                       !- Secondary Daylighting Control Name
  ,                                       !- Fraction of Zone Controlled by Secondary Daylighting Control
  ,                                       !- Illuminance Map Name
  ,                                       !- Group Rendering Name
  ,                                       !- Thermostat Name
  No;                                     !- Use Ideal Air Loads

OS:Node,
  {ea41c3dd-7bd9-443f-b8de-8aa6c045f6d7}, !- Handle
  Node 2,                                 !- Name
  {584f424d-5081-49f1-ac2d-f72a3fe388ce}, !- Inlet Port
  ;                                       !- Outlet Port

OS:Connection,
  {584f424d-5081-49f1-ac2d-f72a3fe388ce}, !- Handle
  {3ab191b7-695a-4c9e-adba-d0a095b76b1d}, !- Name
  {8bcba8a1-f6e7-4c57-8093-d98bd205e69a}, !- Source Object
  11,                                     !- Outlet Port
  {ea41c3dd-7bd9-443f-b8de-8aa6c045f6d7}, !- Target Object
  2;                                      !- Inlet Port

OS:PortList,
  {ffa56f68-0dfb-4dae-b8a3-c0a45f6ac623}, !- Handle
  {a7a8c9d5-081e-4732-a6d3-bb06ade88258}, !- Name
  {8bcba8a1-f6e7-4c57-8093-d98bd205e69a}; !- HVAC Component

OS:PortList,
  {bac099a7-3ca3-41d6-a314-94aa85190519}, !- Handle
  {e1835f3f-7cb9-4a99-9333-f15215965b02}, !- Name
  {8bcba8a1-f6e7-4c57-8093-d98bd205e69a}; !- HVAC Component

OS:PortList,
  {0f502be1-a013-43c0-96a5-bce59be5b9ba}, !- Handle
  {046d2005-1707-4866-aac7-0bf057e19186}, !- Name
  {8bcba8a1-f6e7-4c57-8093-d98bd205e69a}; !- HVAC Component

OS:Sizing:Zone,
  {325ab0d6-573c-4405-a99f-43d00f8eed20}, !- Handle
  {8bcba8a1-f6e7-4c57-8093-d98bd205e69a}, !- Zone or ZoneList Name
  SupplyAirTemperature,                   !- Zone Cooling Design Supply Air Temperature Input Method
  14,                                     !- Zone Cooling Design Supply Air Temperature {C}
  11.11,                                  !- Zone Cooling Design Supply Air Temperature Difference {deltaC}
  SupplyAirTemperature,                   !- Zone Heating Design Supply Air Temperature Input Method
  40,                                     !- Zone Heating Design Supply Air Temperature {C}
  11.11,                                  !- Zone Heating Design Supply Air Temperature Difference {deltaC}
  0.0085,                                 !- Zone Cooling Design Supply Air Humidity Ratio {kg-H2O/kg-air}
  0.008,                                  !- Zone Heating Design Supply Air Humidity Ratio {kg-H2O/kg-air}
  ,                                       !- Zone Heating Sizing Factor
  ,                                       !- Zone Cooling Sizing Factor
  DesignDay,                              !- Cooling Design Air Flow Method
  ,                                       !- Cooling Design Air Flow Rate {m3/s}
  ,                                       !- Cooling Minimum Air Flow per Zone Floor Area {m3/s-m2}
  ,                                       !- Cooling Minimum Air Flow {m3/s}
  ,                                       !- Cooling Minimum Air Flow Fraction
  DesignDay,                              !- Heating Design Air Flow Method
  ,                                       !- Heating Design Air Flow Rate {m3/s}
  ,                                       !- Heating Maximum Air Flow per Zone Floor Area {m3/s-m2}
  ,                                       !- Heating Maximum Air Flow {m3/s}
  ,                                       !- Heating Maximum Air Flow Fraction
  ,                                       !- Design Zone Air Distribution Effectiveness in Cooling Mode
  ,                                       !- Design Zone Air Distribution Effectiveness in Heating Mode
  No,                                     !- Account for Dedicated Outdoor Air System
  NeutralSupplyAir,                       !- Dedicated Outdoor Air System Control Strategy
  autosize,                               !- Dedicated Outdoor Air Low Setpoint Temperature for Design {C}
  autosize;                               !- Dedicated Outdoor Air High Setpoint Temperature for Design {C}

OS:ZoneHVAC:EquipmentList,
  {2bb80801-67fb-4874-bad3-0976d79e37ca}, !- Handle
  Zone HVAC Equipment List 2,             !- Name
  {8bcba8a1-f6e7-4c57-8093-d98bd205e69a}; !- Thermal Zone

OS:Space,
  {a44072d2-b6cf-4a1d-8187-da7175153348}, !- Handle
  garage space,                           !- Name
  {df8b2711-57bc-468a-b3a9-c137267d2a97}, !- Space Type Name
  ,                                       !- Default Construction Set Name
  ,                                       !- Default Schedule Set Name
  -0,                                     !- Direction of Relative North {deg}
  0,                                      !- X Origin {m}
  0,                                      !- Y Origin {m}
  0,                                      !- Z Origin {m}
  ,                                       !- Building Story Name
  {8bcba8a1-f6e7-4c57-8093-d98bd205e69a}; !- Thermal Zone Name

OS:Surface,
  {8621c0ab-491b-4c1c-b5ab-5ec5a22c8300}, !- Handle
  Surface 1,                              !- Name
  Floor,                                  !- Surface Type
  ,                                       !- Construction Name
  {a44072d2-b6cf-4a1d-8187-da7175153348}, !- Space Name
  Foundation,                             !- Outside Boundary Condition
  ,                                       !- Outside Boundary Condition Object
  NoSun,                                  !- Sun Exposure
  NoWind,                                 !- Wind Exposure
  ,                                       !- View Factor to Ground
  ,                                       !- Number of Vertices
  5.57695129776527, -3.048, 0,            !- X,Y,Z Vertex 1 {m}
  5.57695129776527, 3.048, 0,             !- X,Y,Z Vertex 2 {m}
  11.6729512977653, 3.048, 0,             !- X,Y,Z Vertex 3 {m}
  11.6729512977653, -3.048, 0;            !- X,Y,Z Vertex 4 {m}

OS:Surface,
  {0ffadf4d-20a5-450b-a629-7c5b0cedd4cf}, !- Handle
  Surface 2,                              !- Name
  Wall,                                   !- Surface Type
  ,                                       !- Construction Name
  {a44072d2-b6cf-4a1d-8187-da7175153348}, !- Space Name
  Surface,                                !- Outside Boundary Condition
  {a9793564-87c8-479a-bbd6-4b97622d3dee}, !- Outside Boundary Condition Object
  NoSun,                                  !- Sun Exposure
  NoWind,                                 !- Wind Exposure
  ,                                       !- View Factor to Ground
  ,                                       !- Number of Vertices
  5.57695129776527, 3.048, 2.4384,        !- X,Y,Z Vertex 1 {m}
  5.57695129776527, 3.048, 0,             !- X,Y,Z Vertex 2 {m}
  5.57695129776527, 0, 0,                 !- X,Y,Z Vertex 3 {m}
  5.57695129776527, 0, 2.4384;            !- X,Y,Z Vertex 4 {m}

OS:Surface,
  {aadbd555-9d6c-47c2-aec1-ed526fa1df88}, !- Handle
  Surface 3,                              !- Name
  Wall,                                   !- Surface Type
  ,                                       !- Construction Name
  {a44072d2-b6cf-4a1d-8187-da7175153348}, !- Space Name
  Surface,                                !- Outside Boundary Condition
  {33aa40e3-6d50-4601-8e33-9976df340cd2}, !- Outside Boundary Condition Object
  NoSun,                                  !- Sun Exposure
  NoWind,                                 !- Wind Exposure
  ,                                       !- View Factor to Ground
  ,                                       !- Number of Vertices
  11.6729512977653, 3.048, 2.4384,        !- X,Y,Z Vertex 1 {m}
  11.6729512977653, 3.048, 0,             !- X,Y,Z Vertex 2 {m}
  5.57695129776527, 3.048, 0,             !- X,Y,Z Vertex 3 {m}
  5.57695129776527, 3.048, 2.4384;        !- X,Y,Z Vertex 4 {m}

OS:Surface,
  {3ef2ba78-abf8-4ae2-b79a-1a7df21c6c97}, !- Handle
  Surface 4,                              !- Name
  Wall,                                   !- Surface Type
  ,                                       !- Construction Name
  {a44072d2-b6cf-4a1d-8187-da7175153348}, !- Space Name
  Outdoors,                               !- Outside Boundary Condition
  ,                                       !- Outside Boundary Condition Object
  SunExposed,                             !- Sun Exposure
  WindExposed,                            !- Wind Exposure
  ,                                       !- View Factor to Ground
  ,                                       !- Number of Vertices
  11.6729512977653, -3.048, 2.4384,       !- X,Y,Z Vertex 1 {m}
  11.6729512977653, -3.048, 0,            !- X,Y,Z Vertex 2 {m}
  11.6729512977653, 3.048, 0,             !- X,Y,Z Vertex 3 {m}
  11.6729512977653, 3.048, 2.4384;        !- X,Y,Z Vertex 4 {m}

OS:Surface,
  {bdc50192-4d59-48dc-ae35-a5e99772f69e}, !- Handle
  Surface 5,                              !- Name
  Wall,                                   !- Surface Type
  ,                                       !- Construction Name
  {a44072d2-b6cf-4a1d-8187-da7175153348}, !- Space Name
  Outdoors,                               !- Outside Boundary Condition
  ,                                       !- Outside Boundary Condition Object
  SunExposed,                             !- Sun Exposure
  WindExposed,                            !- Wind Exposure
  ,                                       !- View Factor to Ground
  ,                                       !- Number of Vertices
  5.57695129776527, -3.048, 2.4384,       !- X,Y,Z Vertex 1 {m}
  5.57695129776527, -3.048, 0,            !- X,Y,Z Vertex 2 {m}
  11.6729512977653, -3.048, 0,            !- X,Y,Z Vertex 3 {m}
  11.6729512977653, -3.048, 2.4384;       !- X,Y,Z Vertex 4 {m}

OS:Surface,
  {8d22095d-9007-44a9-a7c1-4f665854be16}, !- Handle
  Surface 6,                              !- Name
  RoofCeiling,                            !- Surface Type
  ,                                       !- Construction Name
  {a44072d2-b6cf-4a1d-8187-da7175153348}, !- Space Name
  Surface,                                !- Outside Boundary Condition
  {1ba7b684-c3f9-489d-99f8-974428f44341}, !- Outside Boundary Condition Object
  NoSun,                                  !- Sun Exposure
  NoWind,                                 !- Wind Exposure
  ,                                       !- View Factor to Ground
  ,                                       !- Number of Vertices
  11.6729512977653, -3.048, 2.4384,       !- X,Y,Z Vertex 1 {m}
  11.6729512977653, 3.048, 2.4384,        !- X,Y,Z Vertex 2 {m}
  5.57695129776527, 3.048, 2.4384,        !- X,Y,Z Vertex 3 {m}
  5.57695129776527, -3.048, 2.4384;       !- X,Y,Z Vertex 4 {m}

OS:SpaceType,
  {df8b2711-57bc-468a-b3a9-c137267d2a97}, !- Handle
  Space Type 1,                           !- Name
  ,                                       !- Default Construction Set Name
  ,                                       !- Default Schedule Set Name
  ,                                       !- Group Rendering Name
  ,                                       !- Design Specification Outdoor Air Object Name
  ,                                       !- Standards Template
  ,                                       !- Standards Building Type
  garage;                                 !- Standards Space Type

OS:Space,
  {f8e6ee69-a570-43a8-a42d-b225b2ede4d6}, !- Handle
  living space,                           !- Name
  {5fbb622d-7d82-4cd6-9e02-f941395f9b7e}, !- Space Type Name
  ,                                       !- Default Construction Set Name
  ,                                       !- Default Schedule Set Name
  -0,                                     !- Direction of Relative North {deg}
  0,                                      !- X Origin {m}
  0,                                      !- Y Origin {m}
  0,                                      !- Z Origin {m}
  ,                                       !- Building Story Name
  {130d4c25-0b50-407f-9ce0-7f5c0f104c0b}, !- Thermal Zone Name
  ,                                       !- Part of Total Floor Area
  ,                                       !- Design Specification Outdoor Air Object Name
  {fe332c34-6410-4cec-9f0a-aa053cc7a94a}; !- Building Unit Name

OS:Surface,
  {835f0358-6c9e-4845-aee6-20c28aa15e59}, !- Handle
  Surface 7,                              !- Name
  Floor,                                  !- Surface Type
  ,                                       !- Construction Name
  {f8e6ee69-a570-43a8-a42d-b225b2ede4d6}, !- Space Name
  Surface,                                !- Outside Boundary Condition
  {ada39c45-443b-4aa0-aef3-d424e0313b36}, !- Outside Boundary Condition Object
  NoSun,                                  !- Sun Exposure
  NoWind,                                 !- Wind Exposure
  ,                                       !- View Factor to Ground
  ,                                       !- Number of Vertices
  0, 0, 0,                                !- X,Y,Z Vertex 1 {m}
  0, 5.83647564888264, 0,                 !- X,Y,Z Vertex 2 {m}
  11.6729512977653, 5.83647564888264, 0,  !- X,Y,Z Vertex 3 {m}
  11.6729512977653, 3.048, 0,             !- X,Y,Z Vertex 4 {m}
  5.57695129776527, 3.048, 0,             !- X,Y,Z Vertex 5 {m}
  5.57695129776527, 0, 0;                 !- X,Y,Z Vertex 6 {m}

OS:Surface,
  {9e632b65-8027-4354-8722-db5cd336096f}, !- Handle
  Surface 8,                              !- Name
  Wall,                                   !- Surface Type
  ,                                       !- Construction Name
  {f8e6ee69-a570-43a8-a42d-b225b2ede4d6}, !- Space Name
  Outdoors,                               !- Outside Boundary Condition
  ,                                       !- Outside Boundary Condition Object
  SunExposed,                             !- Sun Exposure
  WindExposed,                            !- Wind Exposure
  ,                                       !- View Factor to Ground
  ,                                       !- Number of Vertices
  0, 5.83647564888264, 2.4384,            !- X,Y,Z Vertex 1 {m}
  0, 5.83647564888264, 0,                 !- X,Y,Z Vertex 2 {m}
  0, 0, 0,                                !- X,Y,Z Vertex 3 {m}
  0, 0, 2.4384;                           !- X,Y,Z Vertex 4 {m}

OS:Surface,
  {7b67ac60-4a8a-40fa-8be8-13e798dc6431}, !- Handle
  Surface 9,                              !- Name
  Wall,                                   !- Surface Type
  ,                                       !- Construction Name
  {f8e6ee69-a570-43a8-a42d-b225b2ede4d6}, !- Space Name
  Outdoors,                               !- Outside Boundary Condition
  ,                                       !- Outside Boundary Condition Object
  SunExposed,                             !- Sun Exposure
  WindExposed,                            !- Wind Exposure
  ,                                       !- View Factor to Ground
  ,                                       !- Number of Vertices
  11.6729512977653, 5.83647564888264, 2.4384, !- X,Y,Z Vertex 1 {m}
  11.6729512977653, 5.83647564888264, 0,  !- X,Y,Z Vertex 2 {m}
  0, 5.83647564888264, 0,                 !- X,Y,Z Vertex 3 {m}
  0, 5.83647564888264, 2.4384;            !- X,Y,Z Vertex 4 {m}

OS:Surface,
  {67fe53db-5f66-46cd-81a8-b56486a595c0}, !- Handle
  Surface 10,                             !- Name
  Wall,                                   !- Surface Type
  ,                                       !- Construction Name
  {f8e6ee69-a570-43a8-a42d-b225b2ede4d6}, !- Space Name
  Outdoors,                               !- Outside Boundary Condition
  ,                                       !- Outside Boundary Condition Object
  SunExposed,                             !- Sun Exposure
  WindExposed,                            !- Wind Exposure
  ,                                       !- View Factor to Ground
  ,                                       !- Number of Vertices
  11.6729512977653, 3.048, 2.4384,        !- X,Y,Z Vertex 1 {m}
  11.6729512977653, 3.048, 0,             !- X,Y,Z Vertex 2 {m}
  11.6729512977653, 5.83647564888264, 0,  !- X,Y,Z Vertex 3 {m}
  11.6729512977653, 5.83647564888264, 2.4384; !- X,Y,Z Vertex 4 {m}

OS:Surface,
  {33aa40e3-6d50-4601-8e33-9976df340cd2}, !- Handle
  Surface 11,                             !- Name
  Wall,                                   !- Surface Type
  ,                                       !- Construction Name
  {f8e6ee69-a570-43a8-a42d-b225b2ede4d6}, !- Space Name
  Surface,                                !- Outside Boundary Condition
  {aadbd555-9d6c-47c2-aec1-ed526fa1df88}, !- Outside Boundary Condition Object
  NoSun,                                  !- Sun Exposure
  NoWind,                                 !- Wind Exposure
  ,                                       !- View Factor to Ground
  ,                                       !- Number of Vertices
  5.57695129776527, 3.048, 2.4384,        !- X,Y,Z Vertex 1 {m}
  5.57695129776527, 3.048, 0,             !- X,Y,Z Vertex 2 {m}
  11.6729512977653, 3.048, 0,             !- X,Y,Z Vertex 3 {m}
  11.6729512977653, 3.048, 2.4384;        !- X,Y,Z Vertex 4 {m}

OS:Surface,
  {a9793564-87c8-479a-bbd6-4b97622d3dee}, !- Handle
  Surface 12,                             !- Name
  Wall,                                   !- Surface Type
  ,                                       !- Construction Name
  {f8e6ee69-a570-43a8-a42d-b225b2ede4d6}, !- Space Name
  Surface,                                !- Outside Boundary Condition
  {0ffadf4d-20a5-450b-a629-7c5b0cedd4cf}, !- Outside Boundary Condition Object
  NoSun,                                  !- Sun Exposure
  NoWind,                                 !- Wind Exposure
  ,                                       !- View Factor to Ground
  ,                                       !- Number of Vertices
  5.57695129776527, 0, 2.4384,            !- X,Y,Z Vertex 1 {m}
  5.57695129776527, 0, 0,                 !- X,Y,Z Vertex 2 {m}
  5.57695129776527, 3.048, 0,             !- X,Y,Z Vertex 3 {m}
  5.57695129776527, 3.048, 2.4384;        !- X,Y,Z Vertex 4 {m}

OS:Surface,
  {131f56f7-01b8-4e8e-b5aa-90bb4fb2b928}, !- Handle
  Surface 13,                             !- Name
  Wall,                                   !- Surface Type
  ,                                       !- Construction Name
  {f8e6ee69-a570-43a8-a42d-b225b2ede4d6}, !- Space Name
  Outdoors,                               !- Outside Boundary Condition
  ,                                       !- Outside Boundary Condition Object
  SunExposed,                             !- Sun Exposure
  WindExposed,                            !- Wind Exposure