!- NOTE: Auto-generated from /test/osw_files/SFD_1story_UB_UA_ASHP2_HPWH.osw

OS:Version,
  {2cae8b0f-6958-47f8-bc59-baaf30ad8bd1}, !- Handle
  2.9.0;                                  !- Version Identifier

OS:SimulationControl,
  {3d178630-83e2-4075-af8c-f1759ff49daf}, !- Handle
  ,                                       !- Do Zone Sizing Calculation
  ,                                       !- Do System Sizing Calculation
  ,                                       !- Do Plant Sizing Calculation
  No;                                     !- Run Simulation for Sizing Periods

OS:Timestep,
  {053dcbae-0fd2-4d7d-a959-a15fcfb39c2b}, !- Handle
  6;                                      !- Number of Timesteps per Hour

OS:ShadowCalculation,
  {85a8cb40-2b4f-4da9-bf86-18bf8225772e}, !- Handle
  20,                                     !- Calculation Frequency
  200;                                    !- Maximum Figures in Shadow Overlap Calculations

OS:SurfaceConvectionAlgorithm:Outside,
  {86885c67-74a3-4102-870d-b5d7c4b64f37}, !- Handle
  DOE-2;                                  !- Algorithm

OS:SurfaceConvectionAlgorithm:Inside,
  {f10e9b1d-57b4-48f8-96fe-c7a04c9a8ad7}, !- Handle
  TARP;                                   !- Algorithm

OS:ZoneCapacitanceMultiplier:ResearchSpecial,
  {6a2e60aa-4299-4aa3-948d-f19a1a2c14ea}, !- Handle
  ,                                       !- Temperature Capacity Multiplier
  15,                                     !- Humidity Capacity Multiplier
  ;                                       !- Carbon Dioxide Capacity Multiplier

OS:RunPeriod,
  {1fdba5c4-f7a2-4184-bad0-ba73ae07237b}, !- Handle
  Run Period 1,                           !- Name
  1,                                      !- Begin Month
  1,                                      !- Begin Day of Month
  12,                                     !- End Month
  31,                                     !- End Day of Month
  ,                                       !- Use Weather File Holidays and Special Days
  ,                                       !- Use Weather File Daylight Saving Period
  ,                                       !- Apply Weekend Holiday Rule
  ,                                       !- Use Weather File Rain Indicators
  ,                                       !- Use Weather File Snow Indicators
  ;                                       !- Number of Times Runperiod to be Repeated

OS:YearDescription,
  {e915a39a-cbf0-4505-9be0-c35a369b78c0}, !- Handle
  2007,                                   !- Calendar Year
  ,                                       !- Day of Week for Start Day
  ;                                       !- Is Leap Year

OS:WeatherFile,
  {a293d835-8934-4864-8afc-a6bd2c98b1ea}, !- Handle
  Denver Intl Ap,                         !- City
  CO,                                     !- State Province Region
  USA,                                    !- Country
  TMY3,                                   !- Data Source
  725650,                                 !- WMO Number
  39.83,                                  !- Latitude {deg}
  -104.65,                                !- Longitude {deg}
  -7,                                     !- Time Zone {hr}
  1650,                                   !- Elevation {m}
  file:../weather/USA_CO_Denver.Intl.AP.725650_TMY3.epw, !- Url
  E23378AA;                               !- Checksum

OS:AdditionalProperties,
  {06f0e81c-58b4-44be-a5e2-4c42adc731bf}, !- Handle
  {a293d835-8934-4864-8afc-a6bd2c98b1ea}, !- Object Name
  EPWHeaderCity,                          !- Feature Name 1
  String,                                 !- Feature Data Type 1
  Denver Intl Ap,                         !- Feature Value 1
  EPWHeaderState,                         !- Feature Name 2
  String,                                 !- Feature Data Type 2
  CO,                                     !- Feature Value 2
  EPWHeaderCountry,                       !- Feature Name 3
  String,                                 !- Feature Data Type 3
  USA,                                    !- Feature Value 3
  EPWHeaderDataSource,                    !- Feature Name 4
  String,                                 !- Feature Data Type 4
  TMY3,                                   !- Feature Value 4
  EPWHeaderStation,                       !- Feature Name 5
  String,                                 !- Feature Data Type 5
  725650,                                 !- Feature Value 5
  EPWHeaderLatitude,                      !- Feature Name 6
  Double,                                 !- Feature Data Type 6
  39.829999999999998,                     !- Feature Value 6
  EPWHeaderLongitude,                     !- Feature Name 7
  Double,                                 !- Feature Data Type 7
  -104.65000000000001,                    !- Feature Value 7
  EPWHeaderTimezone,                      !- Feature Name 8
  Double,                                 !- Feature Data Type 8
  -7,                                     !- Feature Value 8
  EPWHeaderAltitude,                      !- Feature Name 9
  Double,                                 !- Feature Data Type 9
  5413.3858267716532,                     !- Feature Value 9
  EPWHeaderLocalPressure,                 !- Feature Name 10
  Double,                                 !- Feature Data Type 10
  0.81937567683596546,                    !- Feature Value 10
  EPWHeaderRecordsPerHour,                !- Feature Name 11
  Double,                                 !- Feature Data Type 11
  0,                                      !- Feature Value 11
  EPWDataAnnualAvgDrybulb,                !- Feature Name 12
  Double,                                 !- Feature Data Type 12
  51.575616438356228,                     !- Feature Value 12
  EPWDataAnnualMinDrybulb,                !- Feature Name 13
  Double,                                 !- Feature Data Type 13
  -2.9200000000000017,                    !- Feature Value 13
  EPWDataAnnualMaxDrybulb,                !- Feature Name 14
  Double,                                 !- Feature Data Type 14
  104,                                    !- Feature Value 14
  EPWDataCDD50F,                          !- Feature Name 15
  Double,                                 !- Feature Data Type 15
  3072.2925000000005,                     !- Feature Value 15
  EPWDataCDD65F,                          !- Feature Name 16
  Double,                                 !- Feature Data Type 16
  883.62000000000035,                     !- Feature Value 16
  EPWDataHDD50F,                          !- Feature Name 17
  Double,                                 !- Feature Data Type 17
  2497.1925000000001,                     !- Feature Value 17
  EPWDataHDD65F,                          !- Feature Name 18
  Double,                                 !- Feature Data Type 18
  5783.5200000000013,                     !- Feature Value 18
  EPWDataAnnualAvgWindspeed,              !- Feature Name 19
  Double,                                 !- Feature Data Type 19
  3.9165296803649667,                     !- Feature Value 19
  EPWDataMonthlyAvgDrybulbs,              !- Feature Name 20
  String,                                 !- Feature Data Type 20
  33.4191935483871&#4431.90142857142857&#4443.02620967741937&#4442.48624999999999&#4459.877741935483854&#4473.57574999999997&#4472.07975806451608&#4472.70008064516134&#4466.49200000000006&#4450.079112903225806&#4437.218250000000005&#4434.582177419354835, !- Feature Value 20
  EPWDataGroundMonthlyTemps,              !- Feature Name 21
  String,                                 !- Feature Data Type 21
  44.08306285945173&#4440.89570904991865&#4440.64045432632048&#4442.153016571250646&#4448.225111118704206&#4454.268919273837525&#4459.508577937551024&#4462.82777283423508&#4463.10975667174995&#4460.41014950381947&#4455.304105212311526&#4449.445696474514364, !- Feature Value 21
  EPWDataWSF,                             !- Feature Name 22
  Double,                                 !- Feature Data Type 22
  0.58999999999999997,                    !- Feature Value 22
  EPWDataMonthlyAvgDailyHighDrybulbs,     !- Feature Name 23
  String,                                 !- Feature Data Type 23
  47.41032258064516&#4446.58642857142857&#4455.15032258064517&#4453.708&#4472.80193548387098&#4488.67600000000002&#4486.1858064516129&#4485.87225806451613&#4482.082&#4463.18064516129033&#4448.73400000000001&#4448.87935483870968, !- Feature Value 23
  EPWDataMonthlyAvgDailyLowDrybulbs,      !- Feature Name 24
  String,                                 !- Feature Data Type 24
  19.347741935483874&#4419.856428571428573&#4430.316129032258065&#4431.112&#4447.41612903225806&#4457.901999999999994&#4459.063870967741934&#4460.956774193548384&#4452.352000000000004&#4438.41612903225806&#4427.002000000000002&#4423.02903225806451, !- Feature Value 24
  EPWDesignHeatingDrybulb,                !- Feature Name 25
  Double,                                 !- Feature Data Type 25
  12.02,                                  !- Feature Value 25
  EPWDesignHeatingWindspeed,              !- Feature Name 26
  Double,                                 !- Feature Data Type 26
  2.8062500000000004,                     !- Feature Value 26
  EPWDesignCoolingDrybulb,                !- Feature Name 27
  Double,                                 !- Feature Data Type 27
  91.939999999999998,                     !- Feature Value 27
  EPWDesignCoolingWetbulb,                !- Feature Name 28
  Double,                                 !- Feature Data Type 28
  59.95131430195849,                      !- Feature Value 28
  EPWDesignCoolingHumidityRatio,          !- Feature Name 29
  Double,                                 !- Feature Data Type 29
  0.0059161086834698092,                  !- Feature Value 29
  EPWDesignCoolingWindspeed,              !- Feature Name 30
  Double,                                 !- Feature Data Type 30
  3.7999999999999989,                     !- Feature Value 30
  EPWDesignDailyTemperatureRange,         !- Feature Name 31
  Double,                                 !- Feature Data Type 31
  24.915483870967748,                     !- Feature Value 31
  EPWDesignDehumidDrybulb,                !- Feature Name 32
  Double,                                 !- Feature Data Type 32
  67.996785714285721,                     !- Feature Value 32
  EPWDesignDehumidHumidityRatio,          !- Feature Name 33
  Double,                                 !- Feature Data Type 33
  0.012133744170488724,                   !- Feature Value 33
  EPWDesignCoolingDirectNormal,           !- Feature Name 34
  Double,                                 !- Feature Data Type 34
  985,                                    !- Feature Value 34
  EPWDesignCoolingDiffuseHorizontal,      !- Feature Name 35
  Double,                                 !- Feature Data Type 35
  84;                                     !- Feature Value 35

OS:Site,
  {d220e6c9-3d10-4c15-b164-204496039921}, !- Handle
  Denver Intl Ap_CO_USA,                  !- Name
  39.83,                                  !- Latitude {deg}
  -104.65,                                !- Longitude {deg}
  -7,                                     !- Time Zone {hr}
  1650,                                   !- Elevation {m}
  Suburbs;                                !- Terrain

OS:ClimateZones,
  {ac4a614c-ed6b-4115-aa19-7ce028f717cf}, !- Handle
  ,                                       !- Active Institution
  ,                                       !- Active Year
  ,                                       !- Climate Zone Institution Name 1
  ,                                       !- Climate Zone Document Name 1
  ,                                       !- Climate Zone Document Year 1
  ,                                       !- Climate Zone Value 1
  Building America,                       !- Climate Zone Institution Name 2
  ,                                       !- Climate Zone Document Name 2
  0,                                      !- Climate Zone Document Year 2
  Cold;                                   !- Climate Zone Value 2

OS:Site:WaterMainsTemperature,
  {37e341a6-2242-4155-b759-2a184a93bb9f}, !- Handle
  Correlation,                            !- Calculation Method
  ,                                       !- Temperature Schedule Name
  10.8753424657535,                       !- Annual Average Outdoor Air Temperature {C}
  23.1524007936508;                       !- Maximum Difference In Monthly Average Outdoor Air Temperatures {deltaC}

OS:RunPeriodControl:DaylightSavingTime,
  {123ea86a-a373-4f7f-b80b-e53e667c17a5}, !- Handle
  4/7,                                    !- Start Date
  10/26;                                  !- End Date

OS:Site:GroundTemperature:Deep,
  {c6ac8948-3c34-45d0-bdc8-adfb43d182ae}, !- Handle
  10.8753424657535,                       !- January Deep Ground Temperature {C}
  10.8753424657535,                       !- February Deep Ground Temperature {C}
  10.8753424657535,                       !- March Deep Ground Temperature {C}
  10.8753424657535,                       !- April Deep Ground Temperature {C}
  10.8753424657535,                       !- May Deep Ground Temperature {C}
  10.8753424657535,                       !- June Deep Ground Temperature {C}
  10.8753424657535,                       !- July Deep Ground Temperature {C}
  10.8753424657535,                       !- August Deep Ground Temperature {C}
  10.8753424657535,                       !- September Deep Ground Temperature {C}
  10.8753424657535,                       !- October Deep Ground Temperature {C}
  10.8753424657535,                       !- November Deep Ground Temperature {C}
  10.8753424657535;                       !- December Deep Ground Temperature {C}

OS:Building,
  {ec097d21-77e0-4c1e-8464-83e2e440ff75}, !- Handle
  Building 1,                             !- Name
  ,                                       !- Building Sector Type
  202.5,                                  !- North Axis {deg}
  ,                                       !- Nominal Floor to Floor Height {m}
  ,                                       !- Space Type Name
  ,                                       !- Default Construction Set Name
  ,                                       !- Default Schedule Set Name
  1,                                      !- Standards Number of Stories
  1,                                      !- Standards Number of Above Ground Stories
  ,                                       !- Standards Template
  singlefamilydetached,                   !- Standards Building Type
  1;                                      !- Standards Number of Living Units

OS:AdditionalProperties,
  {4bc42cbc-ece6-47a6-8244-839bfb7578c0}, !- Handle
  {ec097d21-77e0-4c1e-8464-83e2e440ff75}, !- Object Name
  Total Units Modeled,                    !- Feature Name 1
  Integer,                                !- Feature Data Type 1
  1;                                      !- Feature Value 1

OS:ThermalZone,
  {7de6f4d8-24ef-4893-81d0-2b5106c13e87}, !- Handle
  living zone,                            !- Name
  ,                                       !- Multiplier
  ,                                       !- Ceiling Height {m}
  ,                                       !- Volume {m3}
  ,                                       !- Floor Area {m2}
  ,                                       !- Zone Inside Convection Algorithm
  ,                                       !- Zone Outside Convection Algorithm
  ,                                       !- Zone Conditioning Equipment List Name
  {8ca48b5d-c472-4d22-a399-523e7be2eebc}, !- Zone Air Inlet Port List
  {03b83468-d792-4cf0-b226-72cbf6af77d0}, !- Zone Air Exhaust Port List
  {2518ee97-8888-465b-a58a-39c94f3c891b}, !- Zone Air Node Name
  {daa28f9c-2015-4100-9b2f-42fad02754b3}, !- Zone Return Air Port List
  ,                                       !- Primary Daylighting Control Name
  ,                                       !- Fraction of Zone Controlled by Primary Daylighting Control
  ,                                       !- Secondary Daylighting Control Name
  ,                                       !- Fraction of Zone Controlled by Secondary Daylighting Control
  ,                                       !- Illuminance Map Name
  ,                                       !- Group Rendering Name
  {3389eea7-1217-402b-9c9f-1968404db4e7}, !- Thermostat Name
  No;                                     !- Use Ideal Air Loads

OS:Node,
  {455bce0f-5996-4efb-bc3d-eed5c8517011}, !- Handle
  Node 1,                                 !- Name
  {2518ee97-8888-465b-a58a-39c94f3c891b}, !- Inlet Port
  ;                                       !- Outlet Port

OS:Connection,
  {2518ee97-8888-465b-a58a-39c94f3c891b}, !- Handle
  {65700be0-5733-4be5-917a-963f8050c126}, !- Name
  {7de6f4d8-24ef-4893-81d0-2b5106c13e87}, !- Source Object
  11,                                     !- Outlet Port
  {455bce0f-5996-4efb-bc3d-eed5c8517011}, !- Target Object
  2;                                      !- Inlet Port

OS:PortList,
  {8ca48b5d-c472-4d22-a399-523e7be2eebc}, !- Handle
  {80f42276-b68a-4a75-ac00-1e99326b75f6}, !- Name
  {7de6f4d8-24ef-4893-81d0-2b5106c13e87}, !- HVAC Component
  {4dbdc2d7-3d17-4789-94da-644ed7e782ef}, !- Port 1
  {6571c4e7-7d2d-40ac-bc26-bbf106296c67}; !- Port 2

OS:PortList,
  {03b83468-d792-4cf0-b226-72cbf6af77d0}, !- Handle
  {cb094fdc-293d-458a-8825-4f78b2c0ab90}, !- Name
  {7de6f4d8-24ef-4893-81d0-2b5106c13e87}; !- HVAC Component

OS:PortList,
  {daa28f9c-2015-4100-9b2f-42fad02754b3}, !- Handle
  {640de506-a5bd-46e3-8e5a-303617b59919}, !- Name
  {7de6f4d8-24ef-4893-81d0-2b5106c13e87}, !- HVAC Component
  {1d83bcb7-0c48-4348-b150-3cb17ef48915}, !- Port 1
  {fa79f52e-6940-41df-8156-37622534c9c5}; !- Port 2

OS:Sizing:Zone,
  {8b10e12a-613d-438e-90a0-e39e0b22c318}, !- Handle
  {7de6f4d8-24ef-4893-81d0-2b5106c13e87}, !- Zone or ZoneList Name
  SupplyAirTemperature,                   !- Zone Cooling Design Supply Air Temperature Input Method
  14,                                     !- Zone Cooling Design Supply Air Temperature {C}
  11.11,                                  !- Zone Cooling Design Supply Air Temperature Difference {deltaC}
  SupplyAirTemperature,                   !- Zone Heating Design Supply Air Temperature Input Method
  40,                                     !- Zone Heating Design Supply Air Temperature {C}
  11.11,                                  !- Zone Heating Design Supply Air Temperature Difference {deltaC}
  0.0085,                                 !- Zone Cooling Design Supply Air Humidity Ratio {kg-H2O/kg-air}
  0.008,                                  !- Zone Heating Design Supply Air Humidity Ratio {kg-H2O/kg-air}
  ,                                       !- Zone Heating Sizing Factor
  ,                                       !- Zone Cooling Sizing Factor
  DesignDay,                              !- Cooling Design Air Flow Method
  ,                                       !- Cooling Design Air Flow Rate {m3/s}
  ,                                       !- Cooling Minimum Air Flow per Zone Floor Area {m3/s-m2}
  ,                                       !- Cooling Minimum Air Flow {m3/s}
  ,                                       !- Cooling Minimum Air Flow Fraction
  DesignDay,                              !- Heating Design Air Flow Method
  ,                                       !- Heating Design Air Flow Rate {m3/s}
  ,                                       !- Heating Maximum Air Flow per Zone Floor Area {m3/s-m2}
  ,                                       !- Heating Maximum Air Flow {m3/s}
  ,                                       !- Heating Maximum Air Flow Fraction
  ,                                       !- Design Zone Air Distribution Effectiveness in Cooling Mode
  ,                                       !- Design Zone Air Distribution Effectiveness in Heating Mode
  No,                                     !- Account for Dedicated Outdoor Air System
  NeutralSupplyAir,                       !- Dedicated Outdoor Air System Control Strategy
  autosize,                               !- Dedicated Outdoor Air Low Setpoint Temperature for Design {C}
  autosize;                               !- Dedicated Outdoor Air High Setpoint Temperature for Design {C}

OS:ZoneHVAC:EquipmentList,
  {36376098-a350-46d3-b0b7-b5083263869a}, !- Handle
  Zone HVAC Equipment List 1,             !- Name
  {7de6f4d8-24ef-4893-81d0-2b5106c13e87}, !- Thermal Zone
  SequentialLoad,                         !- Load Distribution Scheme
  {34ea8a5b-c68a-42b2-8643-836f47708cd2}, !- Zone Equipment 1
  1,                                      !- Zone Equipment Cooling Sequence 1
  1,                                      !- Zone Equipment Heating or No-Load Sequence 1
  ,                                       !- Zone Equipment Sequential Cooling Fraction Schedule Name 1
  ,                                       !- Zone Equipment Sequential Heating Fraction Schedule Name 1
  {c554613c-084a-4fa9-98ab-bcd7fc9105fc}, !- Zone Equipment 2
  2,                                      !- Zone Equipment Cooling Sequence 2
  2,                                      !- Zone Equipment Heating or No-Load Sequence 2
  ,                                       !- Zone Equipment Sequential Cooling Fraction Schedule Name 2
  ;                                       !- Zone Equipment Sequential Heating Fraction Schedule Name 2

OS:Space,
  {159bec40-149a-46ab-9e7f-d7f778a11cf4}, !- Handle
  living space,                           !- Name
  {6d1d77b6-a69f-4b6f-acfd-f9e7e31b2544}, !- Space Type Name
  ,                                       !- Default Construction Set Name
  ,                                       !- Default Schedule Set Name
  -0,                                     !- Direction of Relative North {deg}
  0,                                      !- X Origin {m}
  0,                                      !- Y Origin {m}
  0,                                      !- Z Origin {m}
  ,                                       !- Building Story Name
  {7de6f4d8-24ef-4893-81d0-2b5106c13e87}, !- Thermal Zone Name
  ,                                       !- Part of Total Floor Area
  ,                                       !- Design Specification Outdoor Air Object Name
  {68548dd0-426f-4a4b-8c8b-1a6d7a3c4edb}; !- Building Unit Name

OS:Surface,
  {3ec9a20e-2588-4443-a2ad-9a67efccb5b1}, !- Handle
  Surface 1,                              !- Name
  Floor,                                  !- Surface Type
  {7fc54bf4-4096-4616-8518-baa6987d821b}, !- Construction Name
  {159bec40-149a-46ab-9e7f-d7f778a11cf4}, !- Space Name
  Surface,                                !- Outside Boundary Condition
  {9ac96ef3-6a9e-4e9a-9396-f20b0f9f8d21}, !- Outside Boundary Condition Object
  NoSun,                                  !- Sun Exposure
  NoWind,                                 !- Wind Exposure
  ,                                       !- View Factor to Ground
  ,                                       !- Number of Vertices
  0, 0, 0,                                !- X,Y,Z Vertex 1 {m}
  0, 12.4434078933385, 0,                 !- X,Y,Z Vertex 2 {m}
  22.3981342080094, 12.4434078933385, 0,  !- X,Y,Z Vertex 3 {m}
  22.3981342080094, 0, 0;                 !- X,Y,Z Vertex 4 {m}

OS:Surface,
  {12e38d6d-8bb7-4f43-a620-2b2a325a51a5}, !- Handle
  Surface 2,                              !- Name
  Wall,                                   !- Surface Type
  {24d79598-2220-4220-8ddb-7af74cd16874}, !- Construction Name
  {159bec40-149a-46ab-9e7f-d7f778a11cf4}, !- Space Name
  Outdoors,                               !- Outside Boundary Condition
  ,                                       !- Outside Boundary Condition Object
  SunExposed,                             !- Sun Exposure
  WindExposed,                            !- Wind Exposure
  ,                                       !- View Factor to Ground
  ,                                       !- Number of Vertices
  0, 12.4434078933385, 2.4384,            !- X,Y,Z Vertex 1 {m}
  0, 12.4434078933385, 0,                 !- X,Y,Z Vertex 2 {m}
  0, 0, 0,                                !- X,Y,Z Vertex 3 {m}
  0, 0, 2.4384;                           !- X,Y,Z Vertex 4 {m}

OS:Surface,
  {bfcaa7a2-c75c-4228-90ca-385d20a807e8}, !- Handle
  Surface 3,                              !- Name
  Wall,                                   !- Surface Type
  {24d79598-2220-4220-8ddb-7af74cd16874}, !- Construction Name
  {159bec40-149a-46ab-9e7f-d7f778a11cf4}, !- Space Name
  Outdoors,                               !- Outside Boundary Condition
  ,                                       !- Outside Boundary Condition Object
  SunExposed,                             !- Sun Exposure
  WindExposed,                            !- Wind Exposure
  ,                                       !- View Factor to Ground
  ,                                       !- Number of Vertices
  22.3981342080094, 12.4434078933385, 2.4384, !- X,Y,Z Vertex 1 {m}
  22.3981342080094, 12.4434078933385, 0,  !- X,Y,Z Vertex 2 {m}
  0, 12.4434078933385, 0,                 !- X,Y,Z Vertex 3 {m}
  0, 12.4434078933385, 2.4384;            !- X,Y,Z Vertex 4 {m}

OS:Surface,
  {6f694ccc-89b5-49be-a2f3-01601ff23b54}, !- Handle
  Surface 4,                              !- Name
  Wall,                                   !- Surface Type
  {24d79598-2220-4220-8ddb-7af74cd16874}, !- Construction Name
  {159bec40-149a-46ab-9e7f-d7f778a11cf4}, !- Space Name
  Outdoors,                               !- Outside Boundary Condition
  ,                                       !- Outside Boundary Condition Object
  SunExposed,                             !- Sun Exposure
  WindExposed,                            !- Wind Exposure
  ,                                       !- View Factor to Ground
  ,                                       !- Number of Vertices
  22.3981342080094, 0, 2.4384,            !- X,Y,Z Vertex 1 {m}
  22.3981342080094, 0, 0,                 !- X,Y,Z Vertex 2 {m}
  22.3981342080094, 12.4434078933385, 0,  !- X,Y,Z Vertex 3 {m}
  22.3981342080094, 12.4434078933385, 2.4384; !- X,Y,Z Vertex 4 {m}

OS:Surface,
  {e18dd8db-57e9-4b07-b02f-c7a2077d1cd2}, !- Handle
  Surface 5,                              !- Name
  Wall,                                   !- Surface Type
  {24d79598-2220-4220-8ddb-7af74cd16874}, !- Construction Name
  {159bec40-149a-46ab-9e7f-d7f778a11cf4}, !- Space Name
  Outdoors,                               !- Outside Boundary Condition
  ,                                       !- Outside Boundary Condition Object
  SunExposed,                             !- Sun Exposure
  WindExposed,                            !- Wind Exposure
  ,                                       !- View Factor to Ground
  ,                                       !- Number of Vertices
  22.3981342080094, 0, 0,                 !- X,Y,Z Vertex 1 {m}
  22.3981342080094, 0, 2.4384,            !- X,Y,Z Vertex 2 {m}
  1.91951428571429, 0, 2.4384,            !- X,Y,Z Vertex 3 {m}
  1.91951428571429, 0, 0;                 !- X,Y,Z Vertex 4 {m}

OS:Surface,
  {894d0aed-87e9-4881-a7a3-08e0c719b9b1}, !- Handle
  Surface 6,                              !- Name
  RoofCeiling,                            !- Surface Type
  {6667a0da-b5f7-41e1-9c64-755de4276e89}, !- Construction Name
  {159bec40-149a-46ab-9e7f-d7f778a11cf4}, !- Space Name
  Surface,                                !- Outside Boundary Condition
  {30d42fb0-5f73-4124-98bc-54453f2e0cbd}, !- Outside Boundary Condition Object
  NoSun,                                  !- Sun Exposure
  NoWind,                                 !- Wind Exposure
  ,                                       !- View Factor to Ground
  ,                                       !- Number of Vertices
  22.3981342080094, 0, 2.4384,            !- X,Y,Z Vertex 1 {m}
  22.3981342080094, 12.4434078933385, 2.4384, !- X,Y,Z Vertex 2 {m}
  0, 12.4434078933385, 2.4384,            !- X,Y,Z Vertex 3 {m}
  0, 0, 2.4384;                           !- X,Y,Z Vertex 4 {m}

OS:SpaceType,
  {6d1d77b6-a69f-4b6f-acfd-f9e7e31b2544}, !- Handle
  Space Type 1,                           !- Name
  ,                                       !- Default Construction Set Name
  ,                                       !- Default Schedule Set Name
  ,                                       !- Group Rendering Name
  ,                                       !- Design Specification Outdoor Air Object Name
  ,                                       !- Standards Template
  ,                                       !- Standards Building Type
  living;                                 !- Standards Space Type

OS:Surface,
  {30d42fb0-5f73-4124-98bc-54453f2e0cbd}, !- Handle
  Surface 7,                              !- Name
  Floor,                                  !- Surface Type
  {91adffa4-7a28-490e-8ab3-ebd6997d3926}, !- Construction Name
  {89309f98-9cde-4788-8537-5cadc2009c0d}, !- Space Name
  Surface,                                !- Outside Boundary Condition
  {894d0aed-87e9-4881-a7a3-08e0c719b9b1}, !- Outside Boundary Condition Object
  NoSun,                                  !- Sun Exposure
  NoWind,                                 !- Wind Exposure
  ,                                       !- View Factor to Ground
  ,                                       !- Number of Vertices
  0, 12.4434078933385, 0,                 !- X,Y,Z Vertex 1 {m}
  22.3981342080094, 12.4434078933385, 0,  !- X,Y,Z Vertex 2 {m}
  22.3981342080094, 0, 0,                 !- X,Y,Z Vertex 3 {m}
  0, 0, 0;                                !- X,Y,Z Vertex 4 {m}

OS:Surface,
  {521de18e-47c0-4263-b0bc-3ae333ac2d0f}, !- Handle
  Surface 8,                              !- Name
  RoofCeiling,                            !- Surface Type
  {387abcd6-8489-43f9-9dba-7d6f238b869d}, !- Construction Name
  {89309f98-9cde-4788-8537-5cadc2009c0d}, !- Space Name