!- NOTE: Auto-generated from /test/osw_files/SFD_HVACSizing_Load_2story_CS_GRG_FA_Skylights.osw

OS:Version,
  {8eab1cdb-4e36-4955-a988-7f9da3b0a4d1}, !- Handle
  2.8.1;                                  !- Version Identifier

OS:SimulationControl,
  {db954d31-9f40-4813-ad55-87287af89bbd}, !- Handle
  ,                                       !- Do Zone Sizing Calculation
  ,                                       !- Do System Sizing Calculation
  ,                                       !- Do Plant Sizing Calculation
  No;                                     !- Run Simulation for Sizing Periods

OS:Timestep,
  {454a8536-c142-4a99-883b-1a54b4cce491}, !- Handle
  6;                                      !- Number of Timesteps per Hour

OS:ShadowCalculation,
  {6ce68e84-0eb9-4274-b291-66514f6ea4dc}, !- Handle
  20,                                     !- Calculation Frequency
  200;                                    !- Maximum Figures in Shadow Overlap Calculations

OS:SurfaceConvectionAlgorithm:Outside,
  {e1e3da71-1e79-4f77-a55f-45e0c7601fae}, !- Handle
  DOE-2;                                  !- Algorithm

OS:SurfaceConvectionAlgorithm:Inside,
  {59b38a53-a58c-4942-a219-25e470309e16}, !- Handle
  TARP;                                   !- Algorithm

OS:ZoneCapacitanceMultiplier:ResearchSpecial,
  {7efa0b99-0aa6-4fc0-abf2-93320acdaf39}, !- Handle
  ,                                       !- Temperature Capacity Multiplier
  15,                                     !- Humidity Capacity Multiplier
  ;                                       !- Carbon Dioxide Capacity Multiplier

OS:RunPeriod,
  {70cfed2b-9b52-4289-8b0b-fd1d13d411c5}, !- Handle
  Run Period 1,                           !- Name
  1,                                      !- Begin Month
  1,                                      !- Begin Day of Month
  12,                                     !- End Month
  31,                                     !- End Day of Month
  ,                                       !- Use Weather File Holidays and Special Days
  ,                                       !- Use Weather File Daylight Saving Period
  ,                                       !- Apply Weekend Holiday Rule
  ,                                       !- Use Weather File Rain Indicators
  ,                                       !- Use Weather File Snow Indicators
  ;                                       !- Number of Times Runperiod to be Repeated

OS:WeatherFile,
  {05c098f5-60a7-440d-b518-a8cbe23cf58c}, !- Handle
  Denver Intl Ap,                         !- City
  CO,                                     !- State Province Region
  USA,                                    !- Country
  TMY3,                                   !- Data Source
  725650,                                 !- WMO Number
  39.83,                                  !- Latitude {deg}
  -104.65,                                !- Longitude {deg}
  -7,                                     !- Time Zone {hr}
  1650,                                   !- Elevation {m}
  file:../weather/USA_CO_Denver.Intl.AP.725650_TMY3.epw, !- Url
  E23378AA;                               !- Checksum

OS:AdditionalProperties,
  {982a8524-3957-4a1a-b5b1-71b3078d10ef}, !- Handle
  {05c098f5-60a7-440d-b518-a8cbe23cf58c}, !- Object Name
  EPWHeaderCity,                          !- Feature Name 1
  String,                                 !- Feature Data Type 1
  Denver Intl Ap,                         !- Feature Value 1
  EPWHeaderState,                         !- Feature Name 2
  String,                                 !- Feature Data Type 2
  CO,                                     !- Feature Value 2
  EPWHeaderCountry,                       !- Feature Name 3
  String,                                 !- Feature Data Type 3
  USA,                                    !- Feature Value 3
  EPWHeaderDataSource,                    !- Feature Name 4
  String,                                 !- Feature Data Type 4
  TMY3,                                   !- Feature Value 4
  EPWHeaderStation,                       !- Feature Name 5
  String,                                 !- Feature Data Type 5
  725650,                                 !- Feature Value 5
  EPWHeaderLatitude,                      !- Feature Name 6
  Double,                                 !- Feature Data Type 6
  39.829999999999998,                     !- Feature Value 6
  EPWHeaderLongitude,                     !- Feature Name 7
  Double,                                 !- Feature Data Type 7
  -104.65000000000001,                    !- Feature Value 7
  EPWHeaderTimezone,                      !- Feature Name 8
  Double,                                 !- Feature Data Type 8
  -7,                                     !- Feature Value 8
  EPWHeaderAltitude,                      !- Feature Name 9
  Double,                                 !- Feature Data Type 9
  5413.3858267716532,                     !- Feature Value 9
  EPWHeaderLocalPressure,                 !- Feature Name 10
  Double,                                 !- Feature Data Type 10
  0.81937567683596546,                    !- Feature Value 10
  EPWHeaderRecordsPerHour,                !- Feature Name 11
  Double,                                 !- Feature Data Type 11
  0,                                      !- Feature Value 11
  EPWDataAnnualAvgDrybulb,                !- Feature Name 12
  Double,                                 !- Feature Data Type 12
  51.575616438356228,                     !- Feature Value 12
  EPWDataAnnualMinDrybulb,                !- Feature Name 13
  Double,                                 !- Feature Data Type 13
  -2.9200000000000017,                    !- Feature Value 13
  EPWDataAnnualMaxDrybulb,                !- Feature Name 14
  Double,                                 !- Feature Data Type 14
  104,                                    !- Feature Value 14
  EPWDataCDD50F,                          !- Feature Name 15
  Double,                                 !- Feature Data Type 15
  3072.2925000000005,                     !- Feature Value 15
  EPWDataCDD65F,                          !- Feature Name 16
  Double,                                 !- Feature Data Type 16
  883.62000000000035,                     !- Feature Value 16
  EPWDataHDD50F,                          !- Feature Name 17
  Double,                                 !- Feature Data Type 17
  2497.1925000000001,                     !- Feature Value 17
  EPWDataHDD65F,                          !- Feature Name 18
  Double,                                 !- Feature Data Type 18
  5783.5200000000013,                     !- Feature Value 18
  EPWDataAnnualAvgWindspeed,              !- Feature Name 19
  Double,                                 !- Feature Data Type 19
  3.9165296803649667,                     !- Feature Value 19
  EPWDataMonthlyAvgDrybulbs,              !- Feature Name 20
  String,                                 !- Feature Data Type 20
  33.4191935483871&#4431.90142857142857&#4443.02620967741937&#4442.48624999999999&#4459.877741935483854&#4473.57574999999997&#4472.07975806451608&#4472.70008064516134&#4466.49200000000006&#4450.079112903225806&#4437.218250000000005&#4434.582177419354835, !- Feature Value 20
  EPWDataGroundMonthlyTemps,              !- Feature Name 21
  String,                                 !- Feature Data Type 21
  44.08306285945173&#4440.89570904991865&#4440.64045432632048&#4442.153016571250646&#4448.225111118704206&#4454.268919273837525&#4459.508577937551024&#4462.82777283423508&#4463.10975667174995&#4460.41014950381947&#4455.304105212311526&#4449.445696474514364, !- Feature Value 21
  EPWDataWSF,                             !- Feature Name 22
  Double,                                 !- Feature Data Type 22
  0.58999999999999997,                    !- Feature Value 22
  EPWDataMonthlyAvgDailyHighDrybulbs,     !- Feature Name 23
  String,                                 !- Feature Data Type 23
  47.41032258064516&#4446.58642857142857&#4455.15032258064517&#4453.708&#4472.80193548387098&#4488.67600000000002&#4486.1858064516129&#4485.87225806451613&#4482.082&#4463.18064516129033&#4448.73400000000001&#4448.87935483870968, !- Feature Value 23
  EPWDataMonthlyAvgDailyLowDrybulbs,      !- Feature Name 24
  String,                                 !- Feature Data Type 24
  19.347741935483874&#4419.856428571428573&#4430.316129032258065&#4431.112&#4447.41612903225806&#4457.901999999999994&#4459.063870967741934&#4460.956774193548384&#4452.352000000000004&#4438.41612903225806&#4427.002000000000002&#4423.02903225806451, !- Feature Value 24
  EPWDesignHeatingDrybulb,                !- Feature Name 25
  Double,                                 !- Feature Data Type 25
  12.02,                                  !- Feature Value 25
  EPWDesignHeatingWindspeed,              !- Feature Name 26
  Double,                                 !- Feature Data Type 26
  2.8062500000000004,                     !- Feature Value 26
  EPWDesignCoolingDrybulb,                !- Feature Name 27
  Double,                                 !- Feature Data Type 27
  91.939999999999998,                     !- Feature Value 27
  EPWDesignCoolingWetbulb,                !- Feature Name 28
  Double,                                 !- Feature Data Type 28
  59.95131430195849,                      !- Feature Value 28
  EPWDesignCoolingHumidityRatio,          !- Feature Name 29
  Double,                                 !- Feature Data Type 29
  0.0059161086834698092,                  !- Feature Value 29
  EPWDesignCoolingWindspeed,              !- Feature Name 30
  Double,                                 !- Feature Data Type 30
  3.7999999999999989,                     !- Feature Value 30
  EPWDesignDailyTemperatureRange,         !- Feature Name 31
  Double,                                 !- Feature Data Type 31
  24.915483870967748,                     !- Feature Value 31
  EPWDesignDehumidDrybulb,                !- Feature Name 32
  Double,                                 !- Feature Data Type 32
  67.996785714285721,                     !- Feature Value 32
  EPWDesignDehumidHumidityRatio,          !- Feature Name 33
  Double,                                 !- Feature Data Type 33
  0.012133744170488724,                   !- Feature Value 33
  EPWDesignCoolingDirectNormal,           !- Feature Name 34
  Double,                                 !- Feature Data Type 34
  985,                                    !- Feature Value 34
  EPWDesignCoolingDiffuseHorizontal,      !- Feature Name 35
  Double,                                 !- Feature Data Type 35
  84;                                     !- Feature Value 35

OS:YearDescription,
  {73d0361f-87db-4941-a64b-fa803b4dc642}, !- Handle
  ,                                       !- Calendar Year
  Monday;                                 !- Day of Week for Start Day

OS:Site,
  {4ce4168c-1c1c-4151-9c05-38e62da7692e}, !- Handle
  Denver Intl Ap_CO_USA,                  !- Name
  39.83,                                  !- Latitude {deg}
  -104.65,                                !- Longitude {deg}
  -7,                                     !- Time Zone {hr}
  1650,                                   !- Elevation {m}
  Suburbs;                                !- Terrain

OS:ClimateZones,
  {288b8a4b-ccdf-4999-8682-75abf72b7f7d}, !- Handle
  ,                                       !- Active Institution
  ,                                       !- Active Year
  ,                                       !- Climate Zone Institution Name 1
  ,                                       !- Climate Zone Document Name 1
  ,                                       !- Climate Zone Document Year 1
  ,                                       !- Climate Zone Value 1
  Building America,                       !- Climate Zone Institution Name 2
  ,                                       !- Climate Zone Document Name 2
  0,                                      !- Climate Zone Document Year 2
  Cold;                                   !- Climate Zone Value 2

OS:Site:WaterMainsTemperature,
  {5f814fdf-5d92-4099-8646-dc4b93349ba2}, !- Handle
  Correlation,                            !- Calculation Method
  ,                                       !- Temperature Schedule Name
  10.8753424657535,                       !- Annual Average Outdoor Air Temperature {C}
  23.1524007936508;                       !- Maximum Difference In Monthly Average Outdoor Air Temperatures {deltaC}

OS:RunPeriodControl:DaylightSavingTime,
  {1b38760f-4dd0-4b9d-b735-abf68f977605}, !- Handle
  4/7,                                    !- Start Date
  10/26;                                  !- End Date

OS:Site:GroundTemperature:Deep,
  {3b43f4fb-0d9a-41e3-80cc-b4c52606bbbb}, !- Handle
  10.8753424657535,                       !- January Deep Ground Temperature {C}
  10.8753424657535,                       !- February Deep Ground Temperature {C}
  10.8753424657535,                       !- March Deep Ground Temperature {C}
  10.8753424657535,                       !- April Deep Ground Temperature {C}
  10.8753424657535,                       !- May Deep Ground Temperature {C}
  10.8753424657535,                       !- June Deep Ground Temperature {C}
  10.8753424657535,                       !- July Deep Ground Temperature {C}
  10.8753424657535,                       !- August Deep Ground Temperature {C}
  10.8753424657535,                       !- September Deep Ground Temperature {C}
  10.8753424657535,                       !- October Deep Ground Temperature {C}
  10.8753424657535,                       !- November Deep Ground Temperature {C}
  10.8753424657535;                       !- December Deep Ground Temperature {C}

OS:ThermalZone,
  {8cc0e0ef-c990-483b-a1e5-aaf96938a732}, !- Handle
  living zone,                            !- Name
  ,                                       !- Multiplier
  ,                                       !- Ceiling Height {m}
  ,                                       !- Volume {m3}
  ,                                       !- Floor Area {m2}
  ,                                       !- Zone Inside Convection Algorithm
  ,                                       !- Zone Outside Convection Algorithm
  ,                                       !- Zone Conditioning Equipment List Name
  {fb8045bf-4f29-4273-8c91-9391c8600737}, !- Zone Air Inlet Port List
  {909f8be6-12b3-4403-8a0b-273075e1f779}, !- Zone Air Exhaust Port List
  {c6714595-1262-40e8-bde9-71fa35c771df}, !- Zone Air Node Name
  {2da8b0c4-2930-473a-8160-115155fd0b3c}, !- Zone Return Air Port List
  ,                                       !- Primary Daylighting Control Name
  ,                                       !- Fraction of Zone Controlled by Primary Daylighting Control
  ,                                       !- Secondary Daylighting Control Name
  ,                                       !- Fraction of Zone Controlled by Secondary Daylighting Control
  ,                                       !- Illuminance Map Name
  ,                                       !- Group Rendering Name
  ,                                       !- Thermostat Name
  No;                                     !- Use Ideal Air Loads

OS:Node,
  {b31ede7d-8d4b-499d-a565-9fa830fcb2b2}, !- Handle
  Node 1,                                 !- Name
  {c6714595-1262-40e8-bde9-71fa35c771df}, !- Inlet Port
  ;                                       !- Outlet Port

OS:Connection,
  {c6714595-1262-40e8-bde9-71fa35c771df}, !- Handle
  {03f5bdf1-d394-4912-9af2-1c94512fbdbf}, !- Name
  {8cc0e0ef-c990-483b-a1e5-aaf96938a732}, !- Source Object
  11,                                     !- Outlet Port
  {b31ede7d-8d4b-499d-a565-9fa830fcb2b2}, !- Target Object
  2;                                      !- Inlet Port

OS:PortList,
  {fb8045bf-4f29-4273-8c91-9391c8600737}, !- Handle
  {0577de5c-ee8a-41d2-a46b-ac191653ad3e}, !- Name
  {8cc0e0ef-c990-483b-a1e5-aaf96938a732}; !- HVAC Component

OS:PortList,
  {909f8be6-12b3-4403-8a0b-273075e1f779}, !- Handle
  {626e7947-ed61-4323-a215-cc0f6ef271c1}, !- Name
  {8cc0e0ef-c990-483b-a1e5-aaf96938a732}; !- HVAC Component

OS:PortList,
  {2da8b0c4-2930-473a-8160-115155fd0b3c}, !- Handle
  {caf87915-7933-4a21-a1f5-49fa6eac4045}, !- Name
  {8cc0e0ef-c990-483b-a1e5-aaf96938a732}; !- HVAC Component

OS:Sizing:Zone,
  {dcce2f71-3377-4b5d-8870-e1e1293e645e}, !- Handle
  {8cc0e0ef-c990-483b-a1e5-aaf96938a732}, !- Zone or ZoneList Name
  SupplyAirTemperature,                   !- Zone Cooling Design Supply Air Temperature Input Method
  14,                                     !- Zone Cooling Design Supply Air Temperature {C}
  11.11,                                  !- Zone Cooling Design Supply Air Temperature Difference {deltaC}
  SupplyAirTemperature,                   !- Zone Heating Design Supply Air Temperature Input Method
  40,                                     !- Zone Heating Design Supply Air Temperature {C}
  11.11,                                  !- Zone Heating Design Supply Air Temperature Difference {deltaC}
  0.0085,                                 !- Zone Cooling Design Supply Air Humidity Ratio {kg-H2O/kg-air}
  0.008,                                  !- Zone Heating Design Supply Air Humidity Ratio {kg-H2O/kg-air}
  ,                                       !- Zone Heating Sizing Factor
  ,                                       !- Zone Cooling Sizing Factor
  DesignDay,                              !- Cooling Design Air Flow Method
  ,                                       !- Cooling Design Air Flow Rate {m3/s}
  ,                                       !- Cooling Minimum Air Flow per Zone Floor Area {m3/s-m2}
  ,                                       !- Cooling Minimum Air Flow {m3/s}
  ,                                       !- Cooling Minimum Air Flow Fraction
  DesignDay,                              !- Heating Design Air Flow Method
  ,                                       !- Heating Design Air Flow Rate {m3/s}
  ,                                       !- Heating Maximum Air Flow per Zone Floor Area {m3/s-m2}
  ,                                       !- Heating Maximum Air Flow {m3/s}
  ,                                       !- Heating Maximum Air Flow Fraction
  ,                                       !- Design Zone Air Distribution Effectiveness in Cooling Mode
  ,                                       !- Design Zone Air Distribution Effectiveness in Heating Mode
  No,                                     !- Account for Dedicated Outdoor Air System
  NeutralSupplyAir,                       !- Dedicated Outdoor Air System Control Strategy
  autosize,                               !- Dedicated Outdoor Air Low Setpoint Temperature for Design {C}
  autosize;                               !- Dedicated Outdoor Air High Setpoint Temperature for Design {C}

OS:ZoneHVAC:EquipmentList,
  {33aa72ac-e2c3-4f82-9e8b-87b520bcc677}, !- Handle
  Zone HVAC Equipment List 1,             !- Name
  {8cc0e0ef-c990-483b-a1e5-aaf96938a732}; !- Thermal Zone

OS:ThermalZone,
  {764ebaea-406c-4916-bfc9-689de7750c56}, !- Handle
  garage zone,                            !- Name
  ,                                       !- Multiplier
  ,                                       !- Ceiling Height {m}
  ,                                       !- Volume {m3}
  ,                                       !- Floor Area {m2}
  ,                                       !- Zone Inside Convection Algorithm
  ,                                       !- Zone Outside Convection Algorithm
  ,                                       !- Zone Conditioning Equipment List Name
  {02a84ad5-f3c4-45f1-a4ff-1818d402ae2c}, !- Zone Air Inlet Port List
  {9e4a51c4-56e4-456d-b1d2-70706119f0ff}, !- Zone Air Exhaust Port List
  {5777fdee-56df-4a6a-b96b-1a047bf803b6}, !- Zone Air Node Name
  {b5156c71-cef4-4935-8304-dadaa9575db6}, !- Zone Return Air Port List
  ,                                       !- Primary Daylighting Control Name
  ,                                       !- Fraction of Zone Controlled by Primary Daylighting Control
  ,                                       !- Secondary Daylighting Control Name
  ,                                       !- Fraction of Zone Controlled by Secondary Daylighting Control
  ,                                       !- Illuminance Map Name
  ,                                       !- Group Rendering Name
  ,                                       !- Thermostat Name
  No;                                     !- Use Ideal Air Loads

OS:Node,
  {6ee2e37f-44f5-47a8-99dc-f78a39f68812}, !- Handle
  Node 2,                                 !- Name
  {5777fdee-56df-4a6a-b96b-1a047bf803b6}, !- Inlet Port
  ;                                       !- Outlet Port

OS:Connection,
  {5777fdee-56df-4a6a-b96b-1a047bf803b6}, !- Handle
  {420375b6-92d2-4b4a-9e78-64d02d7a292b}, !- Name
  {764ebaea-406c-4916-bfc9-689de7750c56}, !- Source Object
  11,                                     !- Outlet Port
  {6ee2e37f-44f5-47a8-99dc-f78a39f68812}, !- Target Object
  2;                                      !- Inlet Port

OS:PortList,
  {02a84ad5-f3c4-45f1-a4ff-1818d402ae2c}, !- Handle
  {3ac22621-efe7-47bf-b15b-a9e651aa88cf}, !- Name
  {764ebaea-406c-4916-bfc9-689de7750c56}; !- HVAC Component

OS:PortList,
  {9e4a51c4-56e4-456d-b1d2-70706119f0ff}, !- Handle
  {f7fcbf72-136f-4795-b334-8746f8e70e07}, !- Name
  {764ebaea-406c-4916-bfc9-689de7750c56}; !- HVAC Component

OS:PortList,
  {b5156c71-cef4-4935-8304-dadaa9575db6}, !- Handle
  {25b9c0fb-5123-45ba-9645-76f69988a673}, !- Name
  {764ebaea-406c-4916-bfc9-689de7750c56}; !- HVAC Component

OS:Sizing:Zone,
  {8359651a-a7ae-4657-bf57-5a9823d16e7f}, !- Handle
  {764ebaea-406c-4916-bfc9-689de7750c56}, !- Zone or ZoneList Name
  SupplyAirTemperature,                   !- Zone Cooling Design Supply Air Temperature Input Method
  14,                                     !- Zone Cooling Design Supply Air Temperature {C}
  11.11,                                  !- Zone Cooling Design Supply Air Temperature Difference {deltaC}
  SupplyAirTemperature,                   !- Zone Heating Design Supply Air Temperature Input Method
  40,                                     !- Zone Heating Design Supply Air Temperature {C}
  11.11,                                  !- Zone Heating Design Supply Air Temperature Difference {deltaC}
  0.0085,                                 !- Zone Cooling Design Supply Air Humidity Ratio {kg-H2O/kg-air}
  0.008,                                  !- Zone Heating Design Supply Air Humidity Ratio {kg-H2O/kg-air}
  ,                                       !- Zone Heating Sizing Factor
  ,                                       !- Zone Cooling Sizing Factor
  DesignDay,                              !- Cooling Design Air Flow Method
  ,                                       !- Cooling Design Air Flow Rate {m3/s}
  ,                                       !- Cooling Minimum Air Flow per Zone Floor Area {m3/s-m2}
  ,                                       !- Cooling Minimum Air Flow {m3/s}
  ,                                       !- Cooling Minimum Air Flow Fraction
  DesignDay,                              !- Heating Design Air Flow Method
  ,                                       !- Heating Design Air Flow Rate {m3/s}
  ,                                       !- Heating Maximum Air Flow per Zone Floor Area {m3/s-m2}
  ,                                       !- Heating Maximum Air Flow {m3/s}
  ,                                       !- Heating Maximum Air Flow Fraction
  ,                                       !- Design Zone Air Distribution Effectiveness in Cooling Mode
  ,                                       !- Design Zone Air Distribution Effectiveness in Heating Mode
  No,                                     !- Account for Dedicated Outdoor Air System
  NeutralSupplyAir,                       !- Dedicated Outdoor Air System Control Strategy
  autosize,                               !- Dedicated Outdoor Air Low Setpoint Temperature for Design {C}
  autosize;                               !- Dedicated Outdoor Air High Setpoint Temperature for Design {C}

OS:ZoneHVAC:EquipmentList,
  {a421bc43-fb58-461f-a317-1e7d2ff5ed65}, !- Handle
  Zone HVAC Equipment List 2,             !- Name
  {764ebaea-406c-4916-bfc9-689de7750c56}; !- Thermal Zone

OS:Space,
  {e9cfbc90-563f-4f8b-a290-733e5c11f599}, !- Handle
  garage space,                           !- Name
  {951f31b5-6df7-4a84-8009-0dab977faa1d}, !- Space Type Name
  ,                                       !- Default Construction Set Name
  ,                                       !- Default Schedule Set Name
  -0,                                     !- Direction of Relative North {deg}
  0,                                      !- X Origin {m}
  0,                                      !- Y Origin {m}
  0,                                      !- Z Origin {m}
  ,                                       !- Building Story Name
  {764ebaea-406c-4916-bfc9-689de7750c56}; !- Thermal Zone Name

OS:Surface,
  {84f3db42-19b9-48dc-acbb-39453a8b6f59}, !- Handle
  Surface 1,                              !- Name
  Floor,                                  !- Surface Type
  {c747d7b6-b066-4542-bc55-bb0e2d6f9ac7}, !- Construction Name
  {e9cfbc90-563f-4f8b-a290-733e5c11f599}, !- Space Name
  Foundation,                             !- Outside Boundary Condition
  {6a1e97b4-71ce-4d58-9a69-735a17512c75}, !- Outside Boundary Condition Object
  NoSun,                                  !- Sun Exposure
  NoWind,                                 !- Wind Exposure
  ,                                       !- View Factor to Ground
  ,                                       !- Number of Vertices
  7.6199999993904, -3.048, 0,             !- X,Y,Z Vertex 1 {m}
  7.6199999993904, 3.048, 0,              !- X,Y,Z Vertex 2 {m}
  11.2775999993904, 3.048, 0,             !- X,Y,Z Vertex 3 {m}
  11.2775999993904, -3.048, 0;            !- X,Y,Z Vertex 4 {m}

OS:Surface,
  {5e3db0a7-8684-4810-af84-9879298fa87f}, !- Handle
  Surface 2,                              !- Name
  Wall,                                   !- Surface Type
  {eac587ec-b8f3-4baf-be6f-b909d7cbf26d}, !- Construction Name
  {e9cfbc90-563f-4f8b-a290-733e5c11f599}, !- Space Name
  Surface,                                !- Outside Boundary Condition
  {0b45e6aa-6cb4-4eb3-b5a9-a88b72a84839}, !- Outside Boundary Condition Object
  NoSun,                                  !- Sun Exposure
  NoWind,                                 !- Wind Exposure
  ,                                       !- View Factor to Ground
  ,                                       !- Number of Vertices
  7.6199999993904, 3.048, 2.4384,         !- X,Y,Z Vertex 1 {m}
  7.6199999993904, 3.048, 0,              !- X,Y,Z Vertex 2 {m}
  7.6199999993904, 0, 0,                  !- X,Y,Z Vertex 3 {m}
  7.6199999993904, 0, 2.4384;             !- X,Y,Z Vertex 4 {m}

OS:Surface,
  {8c20a6fe-8f43-4d77-aedf-2bd5ac3bab30}, !- Handle
  Surface 3,                              !- Name
  Wall,                                   !- Surface Type
  {eac587ec-b8f3-4baf-be6f-b909d7cbf26d}, !- Construction Name
  {e9cfbc90-563f-4f8b-a290-733e5c11f599}, !- Space Name
  Surface,                                !- Outside Boundary Condition
  {b7fdfe3b-5353-43b3-98a5-70d7ad88e2ec}, !- Outside Boundary Condition Object
  NoSun,                                  !- Sun Exposure
  NoWind,                                 !- Wind Exposure
  ,                                       !- View Factor to Ground
  ,                                       !- Number of Vertices
  11.2775999993904, 3.048, 2.4384,        !- X,Y,Z Vertex 1 {m}
  11.2775999993904, 3.048, 0,             !- X,Y,Z Vertex 2 {m}
  7.6199999993904, 3.048, 0,              !- X,Y,Z Vertex 3 {m}
  7.6199999993904, 3.048, 2.4384;         !- X,Y,Z Vertex 4 {m}

OS:Surface,
  {c9454287-046e-449f-bb8a-24d33ab7f6cf}, !- Handle
  Surface 4,                              !- Name
  Wall,                                   !- Surface Type
  {5e57afa4-199a-4607-9844-46d8cfbe0584}, !- Construction Name
  {e9cfbc90-563f-4f8b-a290-733e5c11f599}, !- Space Name
  Outdoors,                               !- Outside Boundary Condition
  ,                                       !- Outside Boundary Condition Object
  SunExposed,                             !- Sun Exposure
  WindExposed,                            !- Wind Exposure
  ,                                       !- View Factor to Ground
  ,                                       !- Number of Vertices
  11.2775999993904, -3.048, 2.4384,       !- X,Y,Z Vertex 1 {m}
  11.2775999993904, -3.048, 0,            !- X,Y,Z Vertex 2 {m}
  11.2775999993904, 3.048, 0,             !- X,Y,Z Vertex 3 {m}
  11.2775999993904, 3.048, 2.4384;        !- X,Y,Z Vertex 4 {m}

OS:Surface,
  {f593a694-0518-4409-a941-8f1c8fb5e7ef}, !- Handle
  Surface 5,                              !- Name
  Wall,                                   !- Surface Type
  {5e57afa4-199a-4607-9844-46d8cfbe0584}, !- Construction Name
  {e9cfbc90-563f-4f8b-a290-733e5c11f599}, !- Space Name
  Outdoors,                               !- Outside Boundary Condition
  ,                                       !- Outside Boundary Condition Object
  SunExposed,                             !- Sun Exposure
  WindExposed,                            !- Wind Exposure
  ,                                       !- View Factor to Ground
  ,                                       !- Number of Vertices
  7.6199999993904, -3.048, 2.4384,        !- X,Y,Z Vertex 1 {m}
  7.6199999993904, -3.048, 0,             !- X,Y,Z Vertex 2 {m}
  11.2775999993904, -3.048, 0,            !- X,Y,Z Vertex 3 {m}
  11.2775999993904, -3.048, 2.4384;       !- X,Y,Z Vertex 4 {m}

OS:Surface,
  {3eadaa1d-e71b-4310-9a70-49344f5ae09c}, !- Handle
  Surface 6,                              !- Name
  RoofCeiling,                            !- Surface Type