!- NOTE: Auto-generated from /test/osw_files/SFD_2000sqft_2story_FB_UA_Denver_Furnace_CentralAC2.osw

OS:Version,
  {bb320102-b108-4b26-b8af-ad2a0a36b2fe}, !- Handle
  2.9.0;                                  !- Version Identifier

OS:SimulationControl,
  {613c518f-9134-4028-abf0-0f2355e938f0}, !- Handle
  ,                                       !- Do Zone Sizing Calculation
  ,                                       !- Do System Sizing Calculation
  ,                                       !- Do Plant Sizing Calculation
  No;                                     !- Run Simulation for Sizing Periods

OS:Timestep,
  {58ef4335-aebb-41ac-8a2c-16ca28e4f9cd}, !- Handle
  6;                                      !- Number of Timesteps per Hour

OS:ShadowCalculation,
  {f40bde67-9f2c-40dc-bd50-dcdbd41e41ae}, !- Handle
  20,                                     !- Calculation Frequency
  200;                                    !- Maximum Figures in Shadow Overlap Calculations

OS:SurfaceConvectionAlgorithm:Outside,
  {f2713407-38e8-4bb3-9a93-a109b7536b32}, !- Handle
  DOE-2;                                  !- Algorithm

OS:SurfaceConvectionAlgorithm:Inside,
  {557f3b3b-5584-43f6-8c50-2fef34e20885}, !- Handle
  TARP;                                   !- Algorithm

OS:ZoneCapacitanceMultiplier:ResearchSpecial,
  {e893a2e2-b667-45a6-ad1a-be064c46f5b2}, !- Handle
  ,                                       !- Temperature Capacity Multiplier
  15,                                     !- Humidity Capacity Multiplier
  ;                                       !- Carbon Dioxide Capacity Multiplier

OS:RunPeriod,
  {5e38beb7-1293-416c-a90e-7773a831d782}, !- Handle
  Run Period 1,                           !- Name
  1,                                      !- Begin Month
  1,                                      !- Begin Day of Month
  12,                                     !- End Month
  31,                                     !- End Day of Month
  ,                                       !- Use Weather File Holidays and Special Days
  ,                                       !- Use Weather File Daylight Saving Period
  ,                                       !- Apply Weekend Holiday Rule
  ,                                       !- Use Weather File Rain Indicators
  ,                                       !- Use Weather File Snow Indicators
  ;                                       !- Number of Times Runperiod to be Repeated

OS:YearDescription,
  {e58907b6-e7c8-4736-8ef8-d85a9a055bae}, !- Handle
  2007,                                   !- Calendar Year
  ,                                       !- Day of Week for Start Day
  ;                                       !- Is Leap Year

OS:ThermalZone,
  {74214ea7-b699-4462-bf44-beaec035d19a}, !- Handle
  living zone,                            !- Name
  ,                                       !- Multiplier
  ,                                       !- Ceiling Height {m}
  ,                                       !- Volume {m3}
  ,                                       !- Floor Area {m2}
  ,                                       !- Zone Inside Convection Algorithm
  ,                                       !- Zone Outside Convection Algorithm
  ,                                       !- Zone Conditioning Equipment List Name
  {90ca6541-38c6-4999-b5f5-4f30259dfa27}, !- Zone Air Inlet Port List
  {bde0f88c-bf07-4188-8ffa-c3262e5c693e}, !- Zone Air Exhaust Port List
  {22715219-3e7f-4b50-8658-6b727131cf06}, !- Zone Air Node Name
  {fa70c76e-b006-4278-a0d8-dd510edee944}, !- Zone Return Air Port List
  ,                                       !- Primary Daylighting Control Name
  ,                                       !- Fraction of Zone Controlled by Primary Daylighting Control
  ,                                       !- Secondary Daylighting Control Name
  ,                                       !- Fraction of Zone Controlled by Secondary Daylighting Control
  ,                                       !- Illuminance Map Name
  ,                                       !- Group Rendering Name
  {c6ceca71-a644-4a65-a915-4d9b22a69736}, !- Thermostat Name
  No;                                     !- Use Ideal Air Loads

OS:Node,
  {88e66b7e-7032-4a0e-bbb4-ed30f8b18d52}, !- Handle
  Node 1,                                 !- Name
  {22715219-3e7f-4b50-8658-6b727131cf06}, !- Inlet Port
  ;                                       !- Outlet Port

OS:Connection,
  {22715219-3e7f-4b50-8658-6b727131cf06}, !- Handle
  {a11d4989-24d3-40bf-86dd-28cfce3dfb30}, !- Name
  {74214ea7-b699-4462-bf44-beaec035d19a}, !- Source Object
  11,                                     !- Outlet Port
  {88e66b7e-7032-4a0e-bbb4-ed30f8b18d52}, !- Target Object
  2;                                      !- Inlet Port

OS:PortList,
  {90ca6541-38c6-4999-b5f5-4f30259dfa27}, !- Handle
  {6cf5bfe0-166f-477c-97ff-01d5de44c98e}, !- Name
  {74214ea7-b699-4462-bf44-beaec035d19a}, !- HVAC Component
  {f444077f-baed-4d97-bfb0-4cc6dd11b587}, !- Port 1
  {1cdd6245-954e-4cfe-a836-75c351b312cd}; !- Port 2

OS:PortList,
  {bde0f88c-bf07-4188-8ffa-c3262e5c693e}, !- Handle
  {13869cc2-391b-499b-9026-55540fd91606}, !- Name
  {74214ea7-b699-4462-bf44-beaec035d19a}; !- HVAC Component

OS:PortList,
  {fa70c76e-b006-4278-a0d8-dd510edee944}, !- Handle
  {0343b339-eac1-425a-999e-a065f441120d}, !- Name
  {74214ea7-b699-4462-bf44-beaec035d19a}, !- HVAC Component
  {24283172-dd58-4dcd-8fe4-a4f877b1fcd4}, !- Port 1
  {03ab44b0-0640-41d7-89c4-0f1b541921e1}; !- Port 2

OS:Sizing:Zone,
  {5b8c7bd3-0ccc-4f89-b40e-2873ac9cfb18}, !- Handle
  {74214ea7-b699-4462-bf44-beaec035d19a}, !- Zone or ZoneList Name
  SupplyAirTemperature,                   !- Zone Cooling Design Supply Air Temperature Input Method
  14,                                     !- Zone Cooling Design Supply Air Temperature {C}
  11.11,                                  !- Zone Cooling Design Supply Air Temperature Difference {deltaC}
  SupplyAirTemperature,                   !- Zone Heating Design Supply Air Temperature Input Method
  40,                                     !- Zone Heating Design Supply Air Temperature {C}
  11.11,                                  !- Zone Heating Design Supply Air Temperature Difference {deltaC}
  0.0085,                                 !- Zone Cooling Design Supply Air Humidity Ratio {kg-H2O/kg-air}
  0.008,                                  !- Zone Heating Design Supply Air Humidity Ratio {kg-H2O/kg-air}
  ,                                       !- Zone Heating Sizing Factor
  ,                                       !- Zone Cooling Sizing Factor
  DesignDay,                              !- Cooling Design Air Flow Method
  ,                                       !- Cooling Design Air Flow Rate {m3/s}
  ,                                       !- Cooling Minimum Air Flow per Zone Floor Area {m3/s-m2}
  ,                                       !- Cooling Minimum Air Flow {m3/s}
  ,                                       !- Cooling Minimum Air Flow Fraction
  DesignDay,                              !- Heating Design Air Flow Method
  ,                                       !- Heating Design Air Flow Rate {m3/s}
  ,                                       !- Heating Maximum Air Flow per Zone Floor Area {m3/s-m2}
  ,                                       !- Heating Maximum Air Flow {m3/s}
  ,                                       !- Heating Maximum Air Flow Fraction
  ,                                       !- Design Zone Air Distribution Effectiveness in Cooling Mode
  ,                                       !- Design Zone Air Distribution Effectiveness in Heating Mode
  No,                                     !- Account for Dedicated Outdoor Air System
  NeutralSupplyAir,                       !- Dedicated Outdoor Air System Control Strategy
  autosize,                               !- Dedicated Outdoor Air Low Setpoint Temperature for Design {C}
  autosize;                               !- Dedicated Outdoor Air High Setpoint Temperature for Design {C}

OS:ZoneHVAC:EquipmentList,
  {d8a6bff4-b2c9-4add-9244-a01f1fcf3285}, !- Handle
  Zone HVAC Equipment List 1,             !- Name
  {74214ea7-b699-4462-bf44-beaec035d19a}, !- Thermal Zone
  SequentialLoad,                         !- Load Distribution Scheme
  {c13982f1-645e-483f-862f-c95a6c9307c7}, !- Zone Equipment 1
  1,                                      !- Zone Equipment Cooling Sequence 1
  1,                                      !- Zone Equipment Heating or No-Load Sequence 1
  ,                                       !- Zone Equipment Sequential Cooling Fraction Schedule Name 1
  ,                                       !- Zone Equipment Sequential Heating Fraction Schedule Name 1
  {ba525809-3001-4095-97b3-825cbfade611}, !- Zone Equipment 2
  2,                                      !- Zone Equipment Cooling Sequence 2
  2,                                      !- Zone Equipment Heating or No-Load Sequence 2
  ,                                       !- Zone Equipment Sequential Cooling Fraction Schedule Name 2
  ;                                       !- Zone Equipment Sequential Heating Fraction Schedule Name 2

OS:ThermalZone,
  {71b28917-7a2c-49ce-96fc-d311bee59ae7}, !- Handle
  garage zone,                            !- Name
  ,                                       !- Multiplier
  ,                                       !- Ceiling Height {m}
  ,                                       !- Volume {m3}
  ,                                       !- Floor Area {m2}
  ,                                       !- Zone Inside Convection Algorithm
  ,                                       !- Zone Outside Convection Algorithm
  ,                                       !- Zone Conditioning Equipment List Name
  {a029064f-cdb3-4329-8a74-d583f88daeca}, !- Zone Air Inlet Port List
  {226edf03-87a3-43ed-a26c-72c535bdf0c2}, !- Zone Air Exhaust Port List
  {e8f37c15-7312-462e-94c7-a9bf94c08bd8}, !- Zone Air Node Name
  {1e031e92-9805-43d4-8d5a-36dd3ed965d6}, !- Zone Return Air Port List
  ,                                       !- Primary Daylighting Control Name
  ,                                       !- Fraction of Zone Controlled by Primary Daylighting Control
  ,                                       !- Secondary Daylighting Control Name
  ,                                       !- Fraction of Zone Controlled by Secondary Daylighting Control
  ,                                       !- Illuminance Map Name
  ,                                       !- Group Rendering Name
  ,                                       !- Thermostat Name
  No;                                     !- Use Ideal Air Loads

OS:Node,
  {53f37928-235f-4aee-97f8-9f8c1c9d1e43}, !- Handle
  Node 2,                                 !- Name
  {e8f37c15-7312-462e-94c7-a9bf94c08bd8}, !- Inlet Port
  ;                                       !- Outlet Port

OS:Connection,
  {e8f37c15-7312-462e-94c7-a9bf94c08bd8}, !- Handle
  {bb425afa-6662-44d2-be05-7f1488f860b9}, !- Name
  {71b28917-7a2c-49ce-96fc-d311bee59ae7}, !- Source Object
  11,                                     !- Outlet Port
  {53f37928-235f-4aee-97f8-9f8c1c9d1e43}, !- Target Object
  2;                                      !- Inlet Port

OS:PortList,
  {a029064f-cdb3-4329-8a74-d583f88daeca}, !- Handle
  {2b2834c1-318f-4699-a9bd-63960310d38b}, !- Name
  {71b28917-7a2c-49ce-96fc-d311bee59ae7}; !- HVAC Component

OS:PortList,
  {226edf03-87a3-43ed-a26c-72c535bdf0c2}, !- Handle
  {2e6f368c-fd62-42d0-8dc2-0edf14a052ab}, !- Name
  {71b28917-7a2c-49ce-96fc-d311bee59ae7}; !- HVAC Component

OS:PortList,
  {1e031e92-9805-43d4-8d5a-36dd3ed965d6}, !- Handle
  {6c39c56e-ee9d-4dc9-9c1f-3627db17514b}, !- Name
  {71b28917-7a2c-49ce-96fc-d311bee59ae7}; !- HVAC Component

OS:Sizing:Zone,
  {ec689289-3de8-4a3f-ad26-46e62e8f3992}, !- Handle
  {71b28917-7a2c-49ce-96fc-d311bee59ae7}, !- Zone or ZoneList Name
  SupplyAirTemperature,                   !- Zone Cooling Design Supply Air Temperature Input Method
  14,                                     !- Zone Cooling Design Supply Air Temperature {C}
  11.11,                                  !- Zone Cooling Design Supply Air Temperature Difference {deltaC}
  SupplyAirTemperature,                   !- Zone Heating Design Supply Air Temperature Input Method
  40,                                     !- Zone Heating Design Supply Air Temperature {C}
  11.11,                                  !- Zone Heating Design Supply Air Temperature Difference {deltaC}
  0.0085,                                 !- Zone Cooling Design Supply Air Humidity Ratio {kg-H2O/kg-air}
  0.008,                                  !- Zone Heating Design Supply Air Humidity Ratio {kg-H2O/kg-air}
  ,                                       !- Zone Heating Sizing Factor
  ,                                       !- Zone Cooling Sizing Factor
  DesignDay,                              !- Cooling Design Air Flow Method
  ,                                       !- Cooling Design Air Flow Rate {m3/s}
  ,                                       !- Cooling Minimum Air Flow per Zone Floor Area {m3/s-m2}
  ,                                       !- Cooling Minimum Air Flow {m3/s}
  ,                                       !- Cooling Minimum Air Flow Fraction
  DesignDay,                              !- Heating Design Air Flow Method
  ,                                       !- Heating Design Air Flow Rate {m3/s}
  ,                                       !- Heating Maximum Air Flow per Zone Floor Area {m3/s-m2}
  ,                                       !- Heating Maximum Air Flow {m3/s}
  ,                                       !- Heating Maximum Air Flow Fraction
  ,                                       !- Design Zone Air Distribution Effectiveness in Cooling Mode
  ,                                       !- Design Zone Air Distribution Effectiveness in Heating Mode
  No,                                     !- Account for Dedicated Outdoor Air System
  NeutralSupplyAir,                       !- Dedicated Outdoor Air System Control Strategy
  autosize,                               !- Dedicated Outdoor Air Low Setpoint Temperature for Design {C}
  autosize;                               !- Dedicated Outdoor Air High Setpoint Temperature for Design {C}

OS:ZoneHVAC:EquipmentList,
  {888cd99f-9bb4-4ae7-9bd2-48d4419418a4}, !- Handle
  Zone HVAC Equipment List 2,             !- Name
  {71b28917-7a2c-49ce-96fc-d311bee59ae7}; !- Thermal Zone

OS:Space,
  {b76a220e-5cd0-4699-aa2a-88b4c22911be}, !- Handle
  garage space,                           !- Name
  {01d0c715-c715-4d13-8c80-f905c8b9b3ac}, !- Space Type Name
  ,                                       !- Default Construction Set Name
  ,                                       !- Default Schedule Set Name
  -0,                                     !- Direction of Relative North {deg}
  0,                                      !- X Origin {m}
  0,                                      !- Y Origin {m}
  0,                                      !- Z Origin {m}
  ,                                       !- Building Story Name
  {71b28917-7a2c-49ce-96fc-d311bee59ae7}; !- Thermal Zone Name

OS:Surface,
  {107e079a-b96e-4f83-884c-a5ae51578488}, !- Handle
  Surface 1,                              !- Name
  Floor,                                  !- Surface Type
  ,                                       !- Construction Name
  {b76a220e-5cd0-4699-aa2a-88b4c22911be}, !- Space Name
  Foundation,                             !- Outside Boundary Condition
  ,                                       !- Outside Boundary Condition Object
  NoSun,                                  !- Sun Exposure
  NoWind,                                 !- Wind Exposure
  ,                                       !- View Factor to Ground
  ,                                       !- Number of Vertices
  5.57695129776527, -3.048, 0,            !- X,Y,Z Vertex 1 {m}
  5.57695129776527, 3.048, 0,             !- X,Y,Z Vertex 2 {m}
  11.6729512977653, 3.048, 0,             !- X,Y,Z Vertex 3 {m}
  11.6729512977653, -3.048, 0;            !- X,Y,Z Vertex 4 {m}

OS:Surface,
  {a19d9875-5a79-43e9-b666-66c7f9855e0a}, !- Handle
  Surface 2,                              !- Name
  Wall,                                   !- Surface Type
  ,                                       !- Construction Name
  {b76a220e-5cd0-4699-aa2a-88b4c22911be}, !- Space Name
  Surface,                                !- Outside Boundary Condition
  {0ae5c5d1-f6a7-45d0-91d3-9bb9ad67bd82}, !- Outside Boundary Condition Object
  NoSun,                                  !- Sun Exposure
  NoWind,                                 !- Wind Exposure
  ,                                       !- View Factor to Ground
  ,                                       !- Number of Vertices
  5.57695129776527, 3.048, 2.4384,        !- X,Y,Z Vertex 1 {m}
  5.57695129776527, 3.048, 0,             !- X,Y,Z Vertex 2 {m}
  5.57695129776527, 0, 0,                 !- X,Y,Z Vertex 3 {m}
  5.57695129776527, 0, 2.4384;            !- X,Y,Z Vertex 4 {m}

OS:Surface,
  {77ecba4c-7ba3-411b-bb4a-01b69e65fe8f}, !- Handle
  Surface 3,                              !- Name
  Wall,                                   !- Surface Type
  ,                                       !- Construction Name
  {b76a220e-5cd0-4699-aa2a-88b4c22911be}, !- Space Name
  Surface,                                !- Outside Boundary Condition
  {0192a996-6179-4e1f-99ea-5abce06e5ea6}, !- Outside Boundary Condition Object
  NoSun,                                  !- Sun Exposure
  NoWind,                                 !- Wind Exposure
  ,                                       !- View Factor to Ground
  ,                                       !- Number of Vertices
  11.6729512977653, 3.048, 2.4384,        !- X,Y,Z Vertex 1 {m}
  11.6729512977653, 3.048, 0,             !- X,Y,Z Vertex 2 {m}
  5.57695129776527, 3.048, 0,             !- X,Y,Z Vertex 3 {m}
  5.57695129776527, 3.048, 2.4384;        !- X,Y,Z Vertex 4 {m}

OS:Surface,
  {f7d9b3ea-782f-43aa-b445-a486d49ff053}, !- Handle
  Surface 4,                              !- Name
  Wall,                                   !- Surface Type
  ,                                       !- Construction Name
  {b76a220e-5cd0-4699-aa2a-88b4c22911be}, !- Space Name
  Outdoors,                               !- Outside Boundary Condition
  ,                                       !- Outside Boundary Condition Object
  SunExposed,                             !- Sun Exposure
  WindExposed,                            !- Wind Exposure
  ,                                       !- View Factor to Ground
  ,                                       !- Number of Vertices
  11.6729512977653, -3.048, 2.4384,       !- X,Y,Z Vertex 1 {m}
  11.6729512977653, -3.048, 0,            !- X,Y,Z Vertex 2 {m}
  11.6729512977653, 3.048, 0,             !- X,Y,Z Vertex 3 {m}
  11.6729512977653, 3.048, 2.4384;        !- X,Y,Z Vertex 4 {m}

OS:Surface,
  {f04f7928-03c1-4c99-b5e7-7d7185a72a3f}, !- Handle
  Surface 5,                              !- Name
  Wall,                                   !- Surface Type
  ,                                       !- Construction Name
  {b76a220e-5cd0-4699-aa2a-88b4c22911be}, !- Space Name
  Outdoors,                               !- Outside Boundary Condition
  ,                                       !- Outside Boundary Condition Object
  SunExposed,                             !- Sun Exposure
  WindExposed,                            !- Wind Exposure
  ,                                       !- View Factor to Ground
  ,                                       !- Number of Vertices
  5.57695129776527, -3.048, 2.4384,       !- X,Y,Z Vertex 1 {m}
  5.57695129776527, -3.048, 0,            !- X,Y,Z Vertex 2 {m}
  11.6729512977653, -3.048, 0,            !- X,Y,Z Vertex 3 {m}
  11.6729512977653, -3.048, 2.4384;       !- X,Y,Z Vertex 4 {m}

OS:Surface,
  {01a34c7d-7cf6-476c-9578-e264047bc475}, !- Handle
  Surface 6,                              !- Name
  RoofCeiling,                            !- Surface Type
  ,                                       !- Construction Name
  {b76a220e-5cd0-4699-aa2a-88b4c22911be}, !- Space Name
  Surface,                                !- Outside Boundary Condition
  {d96e8af6-648c-4c2a-b710-4c5143c78ee3}, !- Outside Boundary Condition Object
  NoSun,                                  !- Sun Exposure
  NoWind,                                 !- Wind Exposure
  ,                                       !- View Factor to Ground
  ,                                       !- Number of Vertices
  11.6729512977653, -3.048, 2.4384,       !- X,Y,Z Vertex 1 {m}
  11.6729512977653, 3.048, 2.4384,        !- X,Y,Z Vertex 2 {m}
  5.57695129776527, 3.048, 2.4384,        !- X,Y,Z Vertex 3 {m}
  5.57695129776527, -3.048, 2.4384;       !- X,Y,Z Vertex 4 {m}

OS:SpaceType,
  {01d0c715-c715-4d13-8c80-f905c8b9b3ac}, !- Handle
  Space Type 1,                           !- Name
  ,                                       !- Default Construction Set Name
  ,                                       !- Default Schedule Set Name
  ,                                       !- Group Rendering Name
  ,                                       !- Design Specification Outdoor Air Object Name
  ,                                       !- Standards Template
  ,                                       !- Standards Building Type
  garage;                                 !- Standards Space Type

OS:Space,
  {109a3294-8a2d-4e3d-982f-d1e070ceae7f}, !- Handle
  living space,                           !- Name
  {07b8cfb2-6faf-405b-8be9-0bde66fedce9}, !- Space Type Name
  ,                                       !- Default Construction Set Name
  ,                                       !- Default Schedule Set Name
  -0,                                     !- Direction of Relative North {deg}
  0,                                      !- X Origin {m}
  0,                                      !- Y Origin {m}
  0,                                      !- Z Origin {m}
  ,                                       !- Building Story Name
  {74214ea7-b699-4462-bf44-beaec035d19a}, !- Thermal Zone Name
  ,                                       !- Part of Total Floor Area
  ,                                       !- Design Specification Outdoor Air Object Name
  {98fa4292-42d6-4fd7-849d-4a888a355131}; !- Building Unit Name

OS:Surface,
  {59d9c27a-8492-4705-8462-97fcf25b10c7}, !- Handle
  Surface 7,                              !- Name
  Floor,                                  !- Surface Type
  ,                                       !- Construction Name
  {109a3294-8a2d-4e3d-982f-d1e070ceae7f}, !- Space Name
  Surface,                                !- Outside Boundary Condition
  {065fd268-7348-4d8d-9f9f-9a4d41dffab0}, !- Outside Boundary Condition Object
  NoSun,                                  !- Sun Exposure
  NoWind,                                 !- Wind Exposure
  ,                                       !- View Factor to Ground
  ,                                       !- Number of Vertices
  0, 0, 0,                                !- X,Y,Z Vertex 1 {m}
  0, 5.83647564888264, 0,                 !- X,Y,Z Vertex 2 {m}
  11.6729512977653, 5.83647564888264, 0,  !- X,Y,Z Vertex 3 {m}
  11.6729512977653, 3.048, 0,             !- X,Y,Z Vertex 4 {m}
  5.57695129776527, 3.048, 0,             !- X,Y,Z Vertex 5 {m}
  5.57695129776527, 0, 0;                 !- X,Y,Z Vertex 6 {m}

OS:Surface,
  {13f03d4e-eecb-4534-81e4-e21704d0cf09}, !- Handle
  Surface 8,                              !- Name
  Wall,                                   !- Surface Type
  ,                                       !- Construction Name
  {109a3294-8a2d-4e3d-982f-d1e070ceae7f}, !- Space Name
  Outdoors,                               !- Outside Boundary Condition
  ,                                       !- Outside Boundary Condition Object
  SunExposed,                             !- Sun Exposure
  WindExposed,                            !- Wind Exposure
  ,                                       !- View Factor to Ground
  ,                                       !- Number of Vertices
  0, 5.83647564888264, 2.4384,            !- X,Y,Z Vertex 1 {m}
  0, 5.83647564888264, 0,                 !- X,Y,Z Vertex 2 {m}
  0, 0, 0,                                !- X,Y,Z Vertex 3 {m}
  0, 0, 2.4384;                           !- X,Y,Z Vertex 4 {m}

OS:Surface,
  {e62fa88c-811f-418b-a89e-8fd0aa04848d}, !- Handle
  Surface 9,                              !- Name
  Wall,                                   !- Surface Type
  ,                                       !- Construction Name
  {109a3294-8a2d-4e3d-982f-d1e070ceae7f}, !- Space Name
  Outdoors,                               !- Outside Boundary Condition
  ,                                       !- Outside Boundary Condition Object
  SunExposed,                             !- Sun Exposure
  WindExposed,                            !- Wind Exposure
  ,                                       !- View Factor to Ground
  ,                                       !- Number of Vertices
  11.6729512977653, 5.83647564888264, 2.4384, !- X,Y,Z Vertex 1 {m}
  11.6729512977653, 5.83647564888264, 0,  !- X,Y,Z Vertex 2 {m}
  0, 5.83647564888264, 0,                 !- X,Y,Z Vertex 3 {m}
  0, 5.83647564888264, 2.4384;            !- X,Y,Z Vertex 4 {m}

OS:Surface,
  {54edc823-25b8-45db-b2fb-d0a679525045}, !- Handle
  Surface 10,                             !- Name
  Wall,                                   !- Surface Type
  ,                                       !- Construction Name
  {109a3294-8a2d-4e3d-982f-d1e070ceae7f}, !- Space Name
  Outdoors,                               !- Outside Boundary Condition
  ,                                       !- Outside Boundary Condition Object
  SunExposed,                             !- Sun Exposure
  WindExposed,                            !- Wind Exposure
  ,                                       !- View Factor to Ground
  ,                                       !- Number of Vertices
  11.6729512977653, 3.048, 2.4384,        !- X,Y,Z Vertex 1 {m}
  11.6729512977653, 3.048, 0,             !- X,Y,Z Vertex 2 {m}
  11.6729512977653, 5.83647564888264, 0,  !- X,Y,Z Vertex 3 {m}
  11.6729512977653, 5.83647564888264, 2.4384; !- X,Y,Z Vertex 4 {m}

OS:Surface,
  {0192a996-6179-4e1f-99ea-5abce06e5ea6}, !- Handle
  Surface 11,                             !- Name
  Wall,                                   !- Surface Type
  ,                                       !- Construction Name
  {109a3294-8a2d-4e3d-982f-d1e070ceae7f}, !- Space Name
  Surface,                                !- Outside Boundary Condition
  {77ecba4c-7ba3-411b-bb4a-01b69e65fe8f}, !- Outside Boundary Condition Object
  NoSun,                                  !- Sun Exposure
  NoWind,                                 !- Wind Exposure
  ,                                       !- View Factor to Ground
  ,                                       !- Number of Vertices
  5.57695129776527, 3.048, 2.4384,        !- X,Y,Z Vertex 1 {m}
  5.57695129776527, 3.048, 0,             !- X,Y,Z Vertex 2 {m}
  11.6729512977653, 3.048, 0,             !- X,Y,Z Vertex 3 {m}
  11.6729512977653, 3.048, 2.4384;        !- X,Y,Z Vertex 4 {m}

OS:Surface,
  {0ae5c5d1-f6a7-45d0-91d3-9bb9ad67bd82}, !- Handle
  Surface 12,                             !- Name
  Wall,                                   !- Surface Type
  ,                                       !- Construction Name
  {109a3294-8a2d-4e3d-982f-d1e070ceae7f}, !- Space Name
  Surface,                                !- Outside Boundary Condition
  {a19d9875-5a79-43e9-b666-66c7f9855e0a}, !- Outside Boundary Condition Object
  NoSun,                                  !- Sun Exposure
  NoWind,                                 !- Wind Exposure
  ,                                       !- View Factor to Ground
  ,                                       !- Number of Vertices
  5.57695129776527, 0, 2.4384,            !- X,Y,Z Vertex 1 {m}
  5.57695129776527, 0, 0,                 !- X,Y,Z Vertex 2 {m}
  5.57695129776527, 3.048, 0,             !- X,Y,Z Vertex 3 {m}
  5.57695129776527, 3.048, 2.4384;        !- X,Y,Z Vertex 4 {m}

OS:Surface,
  {4ab85024-e4e4-4f27-ba3d-ca6e541aaad1}, !- Handle
  Surface 13,                             !- Name
  Wall,                                   !- Surface Type
  ,                                       !- Construction Name
  {109a3294-8a2d-4e3d-982f-d1e070ceae7f}, !- Space Name
  Outdoors,                               !- Outside Boundary Condition
  ,                                       !- Outside Boundary Condition Object
  SunExposed,                             !- Sun Exposure
  WindExposed,                            !- Wind Exposure
  ,                                       !- View Factor to Ground
  ,                                       !- Number of Vertices
  0, 0, 2.4384,                           !- X,Y,Z Vertex 1 {m}
  0, 0, 0,                                !- X,Y,Z Vertex 2 {m}
  5.57695129776527, 0, 0,                 !- X,Y,Z Vertex 3 {m}
  5.57695129776527, 0, 2.4384;            !- X,Y,Z Vertex 4 {m}

OS:Surface,
  {55446585-40aa-4d58-9e6d-72480b7ed64e}, !- Handle
  Surface 14,                             !- Name
  RoofCeiling,                            !- Surface Type
  ,                                       !- Construction Name
  {109a3294-8a2d-4e3d-982f-d1e070ceae7f}, !- Space Name
  Surface,                                !- Outside Boundary Condition
  {bf80ff1f-9b4d-481b-ba81-5ac674c2457b}, !- Outside Boundary Condition Object
  NoSun,                                  !- Sun Exposure
  NoWind,                                 !- Wind Exposure
  ,                                       !- View Factor to Ground
  ,                                       !- Number of Vertices
  5.57695129776527, 0, 2.4384,            !- X,Y,Z Vertex 1 {m}
  5.57695129776527, 3.048, 2.4384,        !- X,Y,Z Vertex 2 {m}