!- NOTE: Auto-generated from /test/osw_files/SFD_2000sqft_2story_FB_GRG_UA_3Beds_2Baths_Denver_South_GasWHTank.osw

OS:Version,
  {a539d2e1-c7cd-4381-be6a-afa1c64ac06f}, !- Handle
  2.8.0;                                  !- Version Identifier

OS:SimulationControl,
  {94ec9aba-9eaa-4004-8360-f381aed04790}, !- Handle
  ,                                       !- Do Zone Sizing Calculation
  ,                                       !- Do System Sizing Calculation
  ,                                       !- Do Plant Sizing Calculation
  No;                                     !- Run Simulation for Sizing Periods

OS:Timestep,
  {aebc44ff-08b6-4002-a7dc-d591f9215378}, !- Handle
  6;                                      !- Number of Timesteps per Hour

OS:ShadowCalculation,
  {61746632-6638-4535-a14b-b44de62562bd}, !- Handle
  20,                                     !- Calculation Frequency
  200;                                    !- Maximum Figures in Shadow Overlap Calculations

OS:SurfaceConvectionAlgorithm:Outside,
  {72fe0637-d135-4e48-9b7f-ea6ab9c779c0}, !- Handle
  DOE-2;                                  !- Algorithm

OS:SurfaceConvectionAlgorithm:Inside,
  {c4145a44-6009-4a36-8106-cbbe0fef5ee6}, !- Handle
  TARP;                                   !- Algorithm

OS:ZoneCapacitanceMultiplier:ResearchSpecial,
  {4919f020-750f-4d3c-8ee4-e7f10dc9e52a}, !- Handle
  ,                                       !- Temperature Capacity Multiplier
  15,                                     !- Humidity Capacity Multiplier
  ;                                       !- Carbon Dioxide Capacity Multiplier

OS:RunPeriod,
  {484e1f77-3171-4ee8-b764-c840684f5957}, !- Handle
  Run Period 1,                           !- Name
  1,                                      !- Begin Month
  1,                                      !- Begin Day of Month
  12,                                     !- End Month
  31,                                     !- End Day of Month
  ,                                       !- Use Weather File Holidays and Special Days
  ,                                       !- Use Weather File Daylight Saving Period
  ,                                       !- Apply Weekend Holiday Rule
  ,                                       !- Use Weather File Rain Indicators
  ,                                       !- Use Weather File Snow Indicators
  ;                                       !- Number of Times Runperiod to be Repeated

OS:YearDescription,
  {d1875574-980b-492c-93ad-0d5f9f6f6fdf}, !- Handle
  2007,                                   !- Calendar Year
  ,                                       !- Day of Week for Start Day
  ;                                       !- Is Leap Year

OS:ThermalZone,
  {97c807cd-dad4-42fe-9bb0-db7163ee76fd}, !- Handle
  living zone,                            !- Name
  ,                                       !- Multiplier
  ,                                       !- Ceiling Height {m}
  ,                                       !- Volume {m3}
  ,                                       !- Floor Area {m2}
  ,                                       !- Zone Inside Convection Algorithm
  ,                                       !- Zone Outside Convection Algorithm
  ,                                       !- Zone Conditioning Equipment List Name
  {3ff846be-0823-4b2e-96d6-60a903bf3964}, !- Zone Air Inlet Port List
  {599e3ebe-3156-429e-954a-01dbaec02961}, !- Zone Air Exhaust Port List
  {a1094a0d-5985-4bf7-8f1a-4e45d023e174}, !- Zone Air Node Name
  {d3b74563-7319-475e-b840-40058a5c17d9}, !- Zone Return Air Port List
  ,                                       !- Primary Daylighting Control Name
  ,                                       !- Fraction of Zone Controlled by Primary Daylighting Control
  ,                                       !- Secondary Daylighting Control Name
  ,                                       !- Fraction of Zone Controlled by Secondary Daylighting Control
  ,                                       !- Illuminance Map Name
  ,                                       !- Group Rendering Name
  ,                                       !- Thermostat Name
  No;                                     !- Use Ideal Air Loads

OS:Node,
  {a1f79406-e04c-4c4c-b9d0-68efe6915fdb}, !- Handle
  Node 1,                                 !- Name
  {a1094a0d-5985-4bf7-8f1a-4e45d023e174}, !- Inlet Port
  ;                                       !- Outlet Port

OS:Connection,
  {a1094a0d-5985-4bf7-8f1a-4e45d023e174}, !- Handle
  {c1244b3f-319e-4ed5-8c55-4ab500527c54}, !- Name
  {97c807cd-dad4-42fe-9bb0-db7163ee76fd}, !- Source Object
  11,                                     !- Outlet Port
  {a1f79406-e04c-4c4c-b9d0-68efe6915fdb}, !- Target Object
  2;                                      !- Inlet Port

OS:PortList,
  {3ff846be-0823-4b2e-96d6-60a903bf3964}, !- Handle
  {e4bcf7eb-d2fa-42d0-aac3-841b1d3a404b}, !- Name
  {97c807cd-dad4-42fe-9bb0-db7163ee76fd}; !- HVAC Component

OS:PortList,
  {599e3ebe-3156-429e-954a-01dbaec02961}, !- Handle
  {4037d65f-be19-4cb3-96a5-e71714750bbb}, !- Name
  {97c807cd-dad4-42fe-9bb0-db7163ee76fd}; !- HVAC Component

OS:PortList,
  {d3b74563-7319-475e-b840-40058a5c17d9}, !- Handle
  {da98b8e7-4e1e-49c9-a839-27ea1695ebc8}, !- Name
  {97c807cd-dad4-42fe-9bb0-db7163ee76fd}; !- HVAC Component

OS:Sizing:Zone,
  {36808a6b-b583-4349-ad03-1cdfe655888d}, !- Handle
  {97c807cd-dad4-42fe-9bb0-db7163ee76fd}, !- Zone or ZoneList Name
  SupplyAirTemperature,                   !- Zone Cooling Design Supply Air Temperature Input Method
  14,                                     !- Zone Cooling Design Supply Air Temperature {C}
  11.11,                                  !- Zone Cooling Design Supply Air Temperature Difference {deltaC}
  SupplyAirTemperature,                   !- Zone Heating Design Supply Air Temperature Input Method
  40,                                     !- Zone Heating Design Supply Air Temperature {C}
  11.11,                                  !- Zone Heating Design Supply Air Temperature Difference {deltaC}
  0.0085,                                 !- Zone Cooling Design Supply Air Humidity Ratio {kg-H2O/kg-air}
  0.008,                                  !- Zone Heating Design Supply Air Humidity Ratio {kg-H2O/kg-air}
  ,                                       !- Zone Heating Sizing Factor
  ,                                       !- Zone Cooling Sizing Factor
  DesignDay,                              !- Cooling Design Air Flow Method
  ,                                       !- Cooling Design Air Flow Rate {m3/s}
  ,                                       !- Cooling Minimum Air Flow per Zone Floor Area {m3/s-m2}
  ,                                       !- Cooling Minimum Air Flow {m3/s}
  ,                                       !- Cooling Minimum Air Flow Fraction
  DesignDay,                              !- Heating Design Air Flow Method
  ,                                       !- Heating Design Air Flow Rate {m3/s}
  ,                                       !- Heating Maximum Air Flow per Zone Floor Area {m3/s-m2}
  ,                                       !- Heating Maximum Air Flow {m3/s}
  ,                                       !- Heating Maximum Air Flow Fraction
  ,                                       !- Design Zone Air Distribution Effectiveness in Cooling Mode
  ,                                       !- Design Zone Air Distribution Effectiveness in Heating Mode
  No,                                     !- Account for Dedicated Outdoor Air System
  NeutralSupplyAir,                       !- Dedicated Outdoor Air System Control Strategy
  autosize,                               !- Dedicated Outdoor Air Low Setpoint Temperature for Design {C}
  autosize;                               !- Dedicated Outdoor Air High Setpoint Temperature for Design {C}

OS:ZoneHVAC:EquipmentList,
  {df924504-c95c-4fb3-86f9-eecba8190b0e}, !- Handle
  Zone HVAC Equipment List 1,             !- Name
  {97c807cd-dad4-42fe-9bb0-db7163ee76fd}; !- Thermal Zone

OS:ThermalZone,
  {c50c1cd5-e372-4322-be9f-dd888602f625}, !- Handle
  garage zone,                            !- Name
  ,                                       !- Multiplier
  ,                                       !- Ceiling Height {m}
  ,                                       !- Volume {m3}
  ,                                       !- Floor Area {m2}
  ,                                       !- Zone Inside Convection Algorithm
  ,                                       !- Zone Outside Convection Algorithm
  ,                                       !- Zone Conditioning Equipment List Name
  {0c2862d4-fa47-4ec5-bdd7-2195f892334a}, !- Zone Air Inlet Port List
  {a70a7731-187c-4380-9305-ba7025cd8413}, !- Zone Air Exhaust Port List
  {28c216fa-a7bc-40e8-bd91-abbfc0587688}, !- Zone Air Node Name
  {05554b64-51b2-44a3-ae34-4835d8ccfe67}, !- Zone Return Air Port List
  ,                                       !- Primary Daylighting Control Name
  ,                                       !- Fraction of Zone Controlled by Primary Daylighting Control
  ,                                       !- Secondary Daylighting Control Name
  ,                                       !- Fraction of Zone Controlled by Secondary Daylighting Control
  ,                                       !- Illuminance Map Name
  ,                                       !- Group Rendering Name
  ,                                       !- Thermostat Name
  No;                                     !- Use Ideal Air Loads

OS:Node,
  {d83c2221-f8e7-4afc-b882-ac0cae7d6b5d}, !- Handle
  Node 2,                                 !- Name
  {28c216fa-a7bc-40e8-bd91-abbfc0587688}, !- Inlet Port
  ;                                       !- Outlet Port

OS:Connection,
  {28c216fa-a7bc-40e8-bd91-abbfc0587688}, !- Handle
  {2e71280e-5ed1-4e35-9746-105c16e42e5b}, !- Name
  {c50c1cd5-e372-4322-be9f-dd888602f625}, !- Source Object
  11,                                     !- Outlet Port
  {d83c2221-f8e7-4afc-b882-ac0cae7d6b5d}, !- Target Object
  2;                                      !- Inlet Port

OS:PortList,
  {0c2862d4-fa47-4ec5-bdd7-2195f892334a}, !- Handle
  {e329d069-820e-4c58-b760-2f4e8894cf62}, !- Name
  {c50c1cd5-e372-4322-be9f-dd888602f625}; !- HVAC Component

OS:PortList,
  {a70a7731-187c-4380-9305-ba7025cd8413}, !- Handle
  {c0beb582-f3cf-40fe-9856-085863e3c222}, !- Name
  {c50c1cd5-e372-4322-be9f-dd888602f625}; !- HVAC Component

OS:PortList,
  {05554b64-51b2-44a3-ae34-4835d8ccfe67}, !- Handle
  {a4a67f62-4794-4719-928f-699aab7e285d}, !- Name
  {c50c1cd5-e372-4322-be9f-dd888602f625}; !- HVAC Component

OS:Sizing:Zone,
  {ac3bb5f7-2b1b-4bf8-a2db-a788158a8c2d}, !- Handle
  {c50c1cd5-e372-4322-be9f-dd888602f625}, !- Zone or ZoneList Name
  SupplyAirTemperature,                   !- Zone Cooling Design Supply Air Temperature Input Method
  14,                                     !- Zone Cooling Design Supply Air Temperature {C}
  11.11,                                  !- Zone Cooling Design Supply Air Temperature Difference {deltaC}
  SupplyAirTemperature,                   !- Zone Heating Design Supply Air Temperature Input Method
  40,                                     !- Zone Heating Design Supply Air Temperature {C}
  11.11,                                  !- Zone Heating Design Supply Air Temperature Difference {deltaC}
  0.0085,                                 !- Zone Cooling Design Supply Air Humidity Ratio {kg-H2O/kg-air}
  0.008,                                  !- Zone Heating Design Supply Air Humidity Ratio {kg-H2O/kg-air}
  ,                                       !- Zone Heating Sizing Factor
  ,                                       !- Zone Cooling Sizing Factor
  DesignDay,                              !- Cooling Design Air Flow Method
  ,                                       !- Cooling Design Air Flow Rate {m3/s}
  ,                                       !- Cooling Minimum Air Flow per Zone Floor Area {m3/s-m2}
  ,                                       !- Cooling Minimum Air Flow {m3/s}
  ,                                       !- Cooling Minimum Air Flow Fraction
  DesignDay,                              !- Heating Design Air Flow Method
  ,                                       !- Heating Design Air Flow Rate {m3/s}
  ,                                       !- Heating Maximum Air Flow per Zone Floor Area {m3/s-m2}
  ,                                       !- Heating Maximum Air Flow {m3/s}
  ,                                       !- Heating Maximum Air Flow Fraction
  ,                                       !- Design Zone Air Distribution Effectiveness in Cooling Mode
  ,                                       !- Design Zone Air Distribution Effectiveness in Heating Mode
  No,                                     !- Account for Dedicated Outdoor Air System
  NeutralSupplyAir,                       !- Dedicated Outdoor Air System Control Strategy
  autosize,                               !- Dedicated Outdoor Air Low Setpoint Temperature for Design {C}
  autosize;                               !- Dedicated Outdoor Air High Setpoint Temperature for Design {C}

OS:ZoneHVAC:EquipmentList,
  {7379a614-8dad-4195-a759-731683c94b85}, !- Handle
  Zone HVAC Equipment List 2,             !- Name
  {c50c1cd5-e372-4322-be9f-dd888602f625}; !- Thermal Zone

OS:Space,
  {251e1e5e-3883-4a80-8407-eb08bcb12144}, !- Handle
  garage space,                           !- Name
  {9e73fe3e-f86b-4c09-989d-9c7900a42388}, !- Space Type Name
  ,                                       !- Default Construction Set Name
  ,                                       !- Default Schedule Set Name
  -0,                                     !- Direction of Relative North {deg}
  0,                                      !- X Origin {m}
  0,                                      !- Y Origin {m}
  0,                                      !- Z Origin {m}
  ,                                       !- Building Story Name
  {c50c1cd5-e372-4322-be9f-dd888602f625}; !- Thermal Zone Name

OS:Surface,
  {4bda4c91-12be-4ee6-974d-1c7f5b3d2730}, !- Handle
  Surface 1,                              !- Name
  Floor,                                  !- Surface Type
  ,                                       !- Construction Name
  {251e1e5e-3883-4a80-8407-eb08bcb12144}, !- Space Name
  Foundation,                             !- Outside Boundary Condition
  ,                                       !- Outside Boundary Condition Object
  NoSun,                                  !- Sun Exposure
  NoWind,                                 !- Wind Exposure
  ,                                       !- View Factor to Ground
  ,                                       !- Number of Vertices
  5.57695129776527, -3.048, 0,            !- X,Y,Z Vertex 1 {m}
  5.57695129776527, 3.048, 0,             !- X,Y,Z Vertex 2 {m}
  11.6729512977653, 3.048, 0,             !- X,Y,Z Vertex 3 {m}
  11.6729512977653, -3.048, 0;            !- X,Y,Z Vertex 4 {m}

OS:Surface,
  {7e2b21b7-9784-453b-a81c-ae9bc6ef01cb}, !- Handle
  Surface 2,                              !- Name
  Wall,                                   !- Surface Type
  ,                                       !- Construction Name
  {251e1e5e-3883-4a80-8407-eb08bcb12144}, !- Space Name
  Surface,                                !- Outside Boundary Condition
  {2c3749ca-db7e-44e4-aa96-d3bbe122ec43}, !- Outside Boundary Condition Object
  NoSun,                                  !- Sun Exposure
  NoWind,                                 !- Wind Exposure
  ,                                       !- View Factor to Ground
  ,                                       !- Number of Vertices
  5.57695129776527, 3.048, 2.4384,        !- X,Y,Z Vertex 1 {m}
  5.57695129776527, 3.048, 0,             !- X,Y,Z Vertex 2 {m}
  5.57695129776527, 0, 0,                 !- X,Y,Z Vertex 3 {m}
  5.57695129776527, 0, 2.4384;            !- X,Y,Z Vertex 4 {m}

OS:Surface,
  {4e26b6a2-e9c3-4171-b350-7d39d0271f65}, !- Handle
  Surface 3,                              !- Name
  Wall,                                   !- Surface Type
  ,                                       !- Construction Name
  {251e1e5e-3883-4a80-8407-eb08bcb12144}, !- Space Name
  Surface,                                !- Outside Boundary Condition
  {8ad52a02-3521-4064-8bf7-295372d9fdc5}, !- Outside Boundary Condition Object
  NoSun,                                  !- Sun Exposure
  NoWind,                                 !- Wind Exposure
  ,                                       !- View Factor to Ground
  ,                                       !- Number of Vertices
  11.6729512977653, 3.048, 2.4384,        !- X,Y,Z Vertex 1 {m}
  11.6729512977653, 3.048, 0,             !- X,Y,Z Vertex 2 {m}
  5.57695129776527, 3.048, 0,             !- X,Y,Z Vertex 3 {m}
  5.57695129776527, 3.048, 2.4384;        !- X,Y,Z Vertex 4 {m}

OS:Surface,
  {633078c3-d991-4b83-bf12-a01b3710a817}, !- Handle
  Surface 4,                              !- Name
  Wall,                                   !- Surface Type
  ,                                       !- Construction Name
  {251e1e5e-3883-4a80-8407-eb08bcb12144}, !- Space Name
  Outdoors,                               !- Outside Boundary Condition
  ,                                       !- Outside Boundary Condition Object
  SunExposed,                             !- Sun Exposure
  WindExposed,                            !- Wind Exposure
  ,                                       !- View Factor to Ground
  ,                                       !- Number of Vertices
  11.6729512977653, -3.048, 2.4384,       !- X,Y,Z Vertex 1 {m}
  11.6729512977653, -3.048, 0,            !- X,Y,Z Vertex 2 {m}
  11.6729512977653, 3.048, 0,             !- X,Y,Z Vertex 3 {m}
  11.6729512977653, 3.048, 2.4384;        !- X,Y,Z Vertex 4 {m}

OS:Surface,
  {e215d213-0c6c-4175-bdd2-04db033b25c0}, !- Handle
  Surface 5,                              !- Name
  Wall,                                   !- Surface Type
  ,                                       !- Construction Name
  {251e1e5e-3883-4a80-8407-eb08bcb12144}, !- Space Name
  Outdoors,                               !- Outside Boundary Condition
  ,                                       !- Outside Boundary Condition Object
  SunExposed,                             !- Sun Exposure
  WindExposed,                            !- Wind Exposure
  ,                                       !- View Factor to Ground
  ,                                       !- Number of Vertices
  5.57695129776527, -3.048, 2.4384,       !- X,Y,Z Vertex 1 {m}
  5.57695129776527, -3.048, 0,            !- X,Y,Z Vertex 2 {m}
  11.6729512977653, -3.048, 0,            !- X,Y,Z Vertex 3 {m}
  11.6729512977653, -3.048, 2.4384;       !- X,Y,Z Vertex 4 {m}

OS:Surface,
  {7a794dd6-a2ac-4eeb-bca4-2a41b030ddd5}, !- Handle
  Surface 6,                              !- Name
  RoofCeiling,                            !- Surface Type
  ,                                       !- Construction Name
  {251e1e5e-3883-4a80-8407-eb08bcb12144}, !- Space Name
  Surface,                                !- Outside Boundary Condition
  {99909f22-5a69-4da4-b960-f4221e4273eb}, !- Outside Boundary Condition Object
  NoSun,                                  !- Sun Exposure
  NoWind,                                 !- Wind Exposure
  ,                                       !- View Factor to Ground
  ,                                       !- Number of Vertices
  11.6729512977653, -3.048, 2.4384,       !- X,Y,Z Vertex 1 {m}
  11.6729512977653, 3.048, 2.4384,        !- X,Y,Z Vertex 2 {m}
  5.57695129776527, 3.048, 2.4384,        !- X,Y,Z Vertex 3 {m}
  5.57695129776527, -3.048, 2.4384;       !- X,Y,Z Vertex 4 {m}

OS:SpaceType,
  {9e73fe3e-f86b-4c09-989d-9c7900a42388}, !- Handle
  Space Type 1,                           !- Name
  ,                                       !- Default Construction Set Name
  ,                                       !- Default Schedule Set Name
  ,                                       !- Group Rendering Name
  ,                                       !- Design Specification Outdoor Air Object Name
  ,                                       !- Standards Template
  ,                                       !- Standards Building Type
  garage;                                 !- Standards Space Type

OS:Space,
  {11c30333-2655-425f-8805-6bf34b9b85cb}, !- Handle
  living space,                           !- Name
  {63ca7446-b942-45b4-92e1-0f6650384f95}, !- Space Type Name
  ,                                       !- Default Construction Set Name
  ,                                       !- Default Schedule Set Name
  -0,                                     !- Direction of Relative North {deg}
  0,                                      !- X Origin {m}
  0,                                      !- Y Origin {m}
  0,                                      !- Z Origin {m}
  ,                                       !- Building Story Name
  {97c807cd-dad4-42fe-9bb0-db7163ee76fd}, !- Thermal Zone Name
  ,                                       !- Part of Total Floor Area
  ,                                       !- Design Specification Outdoor Air Object Name
  {c35a00ea-99a1-4243-a095-8906a96862ba}; !- Building Unit Name

OS:Surface,
  {30af3d96-f684-446d-afe0-e4633856f6cd}, !- Handle
  Surface 7,                              !- Name
  Floor,                                  !- Surface Type
  ,                                       !- Construction Name
  {11c30333-2655-425f-8805-6bf34b9b85cb}, !- Space Name
  Surface,                                !- Outside Boundary Condition
  {874bf7a0-e989-4a65-8cd9-4689580cfa6b}, !- Outside Boundary Condition Object
  NoSun,                                  !- Sun Exposure
  NoWind,                                 !- Wind Exposure
  ,                                       !- View Factor to Ground
  ,                                       !- Number of Vertices
  0, 0, 0,                                !- X,Y,Z Vertex 1 {m}
  0, 5.83647564888264, 0,                 !- X,Y,Z Vertex 2 {m}
  11.6729512977653, 5.83647564888264, 0,  !- X,Y,Z Vertex 3 {m}
  11.6729512977653, 3.048, 0,             !- X,Y,Z Vertex 4 {m}
  5.57695129776527, 3.048, 0,             !- X,Y,Z Vertex 5 {m}
  5.57695129776527, 0, 0;                 !- X,Y,Z Vertex 6 {m}

OS:Surface,
  {08b311ec-4d5b-4cf7-9f74-0398d90b8ac7}, !- Handle
  Surface 8,                              !- Name
  Wall,                                   !- Surface Type
  ,                                       !- Construction Name
  {11c30333-2655-425f-8805-6bf34b9b85cb}, !- Space Name
  Outdoors,                               !- Outside Boundary Condition
  ,                                       !- Outside Boundary Condition Object
  SunExposed,                             !- Sun Exposure
  WindExposed,                            !- Wind Exposure
  ,                                       !- View Factor to Ground
  ,                                       !- Number of Vertices
  0, 5.83647564888264, 2.4384,            !- X,Y,Z Vertex 1 {m}
  0, 5.83647564888264, 0,                 !- X,Y,Z Vertex 2 {m}
  0, 0, 0,                                !- X,Y,Z Vertex 3 {m}
  0, 0, 2.4384;                           !- X,Y,Z Vertex 4 {m}

OS:Surface,
  {4b67f582-bb1b-499e-a73e-d05403926fb6}, !- Handle
  Surface 9,                              !- Name
  Wall,                                   !- Surface Type
  ,                                       !- Construction Name
  {11c30333-2655-425f-8805-6bf34b9b85cb}, !- Space Name
  Outdoors,                               !- Outside Boundary Condition
  ,                                       !- Outside Boundary Condition Object
  SunExposed,                             !- Sun Exposure
  WindExposed,                            !- Wind Exposure
  ,                                       !- View Factor to Ground
  ,                                       !- Number of Vertices
  11.6729512977653, 5.83647564888264, 2.4384, !- X,Y,Z Vertex 1 {m}
  11.6729512977653, 5.83647564888264, 0,  !- X,Y,Z Vertex 2 {m}
  0, 5.83647564888264, 0,                 !- X,Y,Z Vertex 3 {m}
  0, 5.83647564888264, 2.4384;            !- X,Y,Z Vertex 4 {m}

OS:Surface,
  {55df3899-174d-4a75-88c7-982c4710849e}, !- Handle
  Surface 10,                             !- Name
  Wall,                                   !- Surface Type
  ,                                       !- Construction Name
  {11c30333-2655-425f-8805-6bf34b9b85cb}, !- Space Name
  Outdoors,                               !- Outside Boundary Condition
  ,                                       !- Outside Boundary Condition Object
  SunExposed,                             !- Sun Exposure
  WindExposed,                            !- Wind Exposure
  ,                                       !- View Factor to Ground
  ,                                       !- Number of Vertices
  11.6729512977653, 3.048, 2.4384,        !- X,Y,Z Vertex 1 {m}
  11.6729512977653, 3.048, 0,             !- X,Y,Z Vertex 2 {m}
  11.6729512977653, 5.83647564888264, 0,  !- X,Y,Z Vertex 3 {m}
  11.6729512977653, 5.83647564888264, 2.4384; !- X,Y,Z Vertex 4 {m}

OS:Surface,
  {8ad52a02-3521-4064-8bf7-295372d9fdc5}, !- Handle
  Surface 11,                             !- Name
  Wall,                                   !- Surface Type
  ,                                       !- Construction Name
  {11c30333-2655-425f-8805-6bf34b9b85cb}, !- Space Name
  Surface,                                !- Outside Boundary Condition
  {4e26b6a2-e9c3-4171-b350-7d39d0271f65}, !- Outside Boundary Condition Object
  NoSun,                                  !- Sun Exposure
  NoWind,                                 !- Wind Exposure
  ,                                       !- View Factor to Ground
  ,                                       !- Number of Vertices
  5.57695129776527, 3.048, 2.4384,        !- X,Y,Z Vertex 1 {m}
  5.57695129776527, 3.048, 0,             !- X,Y,Z Vertex 2 {m}
  11.6729512977653, 3.048, 0,             !- X,Y,Z Vertex 3 {m}
  11.6729512977653, 3.048, 2.4384;        !- X,Y,Z Vertex 4 {m}

OS:Surface,
  {2c3749ca-db7e-44e4-aa96-d3bbe122ec43}, !- Handle
  Surface 12,                             !- Name
  Wall,                                   !- Surface Type
  ,                                       !- Construction Name
  {11c30333-2655-425f-8805-6bf34b9b85cb}, !- Space Name
  Surface,                                !- Outside Boundary Condition
  {7e2b21b7-9784-453b-a81c-ae9bc6ef01cb}, !- Outside Boundary Condition Object
  NoSun,                                  !- Sun Exposure
  NoWind,                                 !- Wind Exposure
  ,                                       !- View Factor to Ground
  ,                                       !- Number of Vertices
  5.57695129776527, 0, 2.4384,            !- X,Y,Z Vertex 1 {m}
  5.57695129776527, 0, 0,                 !- X,Y,Z Vertex 2 {m}
  5.57695129776527, 3.048, 0,             !- X,Y,Z Vertex 3 {m}
  5.57695129776527, 3.048, 2.4384;        !- X,Y,Z Vertex 4 {m}

OS:Surface,
  {3f44dfef-9633-414a-93e7-190ebe898a4c}, !- Handle
  Surface 13,                             !- Name
  Wall,                                   !- Surface Type
  ,                                       !- Construction Name
  {11c30333-2655-425f-8805-6bf34b9b85cb}, !- Space Name
  Outdoors,                               !- Outside Boundary Condition
  ,                                       !- Outside Boundary Condition Object
  SunExposed,                             !- Sun Exposure
  WindExposed,                            !- Wind Exposure
  ,                                       !- View Factor to Ground
  ,                                       !- Number of Vertices
  0, 0, 2.4384,                           !- X,Y,Z Vertex 1 {m}
  0, 0, 0,                                !- X,Y,Z Vertex 2 {m}
  5.57695129776527, 0, 0,                 !- X,Y,Z Vertex 3 {m}
  5.57695129776527, 0, 2.4384;            !- X,Y,Z Vertex 4 {m}

OS:Surface,
  {b25ffcf2-beaa-4920-8f4b-97207b3411c1}, !- Handle
  Surface 14,                             !- Name
  RoofCeiling,                            !- Surface Type
  ,                                       !- Construction Name
  {11c30333-2655-425f-8805-6bf34b9b85cb}, !- Space Name
  Surface,                                !- Outside Boundary Condition
  {254e28fc-e62d-41ea-a19b-0bdc21b2635b}, !- Outside Boundary Condition Object
  NoSun,                                  !- Sun Exposure
  NoWind,                                 !- Wind Exposure
  ,                                       !- View Factor to Ground
  ,                                       !- Number of Vertices
  5.57695129776527, 0, 2.4384,            !- X,Y,Z Vertex 1 {m}
  5.57695129776527, 3.048, 2.4384,        !- X,Y,Z Vertex 2 {m}
  11.6729512977653, 3.048, 2.4384,        !- X,Y,Z Vertex 3 {m}
  11.6729512977653, 5.83647564888264, 2.4384, !- X,Y,Z Vertex 4 {m}
  0, 5.83647564888264, 2.4384,            !- X,Y,Z Vertex 5 {m}
  0, 0, 2.4384;                           !- X,Y,Z Vertex 6 {m}

OS:SpaceType,
  {63ca7446-b942-45b4-92e1-0f6650384f95}, !- Handle
  Space Type 2,                           !- Name
  ,                                       !- Default Construction Set Name
  ,                                       !- Default Schedule Set Name
  ,                                       !- Group Rendering Name
  ,                                       !- Design Specification Outdoor Air Object Name
  ,                                       !- Standards Template
  ,                                       !- Standards Building Type
  living;                                 !- Standards Space Type

OS:Space,
  {572032c5-933f-4094-993d-07a46166ee62}, !- Handle
  living space|story 2,                   !- Name
  {63ca7446-b942-45b4-92e1-0f6650384f95}, !- Space Type Name
  ,                                       !- Default Construction Set Name