!- NOTE: Auto-generated from /test/osw_files/SFD_2000sqft_2story_FB_UA_Denver_ElectricBaseboard_CentralAC.osw

OS:Version,
  {881423a1-9eb1-474a-bd50-a82fd68cc7bf}, !- Handle
  2.9.0;                                  !- Version Identifier

OS:SimulationControl,
  {fbc7917a-04e3-4a0e-838d-d8c3a5a9b585}, !- Handle
  ,                                       !- Do Zone Sizing Calculation
  ,                                       !- Do System Sizing Calculation
  ,                                       !- Do Plant Sizing Calculation
  No;                                     !- Run Simulation for Sizing Periods

OS:Timestep,
  {ba1c007c-7afc-4628-bfd9-716604ee2e48}, !- Handle
  6;                                      !- Number of Timesteps per Hour

OS:ShadowCalculation,
  {1b40000d-d5fe-42e9-ba5a-c163f54e2b37}, !- Handle
  20,                                     !- Calculation Frequency
  200;                                    !- Maximum Figures in Shadow Overlap Calculations

OS:SurfaceConvectionAlgorithm:Outside,
  {55b6aded-8984-4786-bf7a-0e1bfce24ef4}, !- Handle
  DOE-2;                                  !- Algorithm

OS:SurfaceConvectionAlgorithm:Inside,
  {535104f8-f817-4cb5-9f3f-71b7aabc0987}, !- Handle
  TARP;                                   !- Algorithm

OS:ZoneCapacitanceMultiplier:ResearchSpecial,
  {efa38cbe-29c0-4833-977e-17f377c4019a}, !- Handle
  ,                                       !- Temperature Capacity Multiplier
  15,                                     !- Humidity Capacity Multiplier
  ;                                       !- Carbon Dioxide Capacity Multiplier

OS:RunPeriod,
  {9981b822-4e10-4c20-9993-574167e4cace}, !- Handle
  Run Period 1,                           !- Name
  1,                                      !- Begin Month
  1,                                      !- Begin Day of Month
  12,                                     !- End Month
  31,                                     !- End Day of Month
  ,                                       !- Use Weather File Holidays and Special Days
  ,                                       !- Use Weather File Daylight Saving Period
  ,                                       !- Apply Weekend Holiday Rule
  ,                                       !- Use Weather File Rain Indicators
  ,                                       !- Use Weather File Snow Indicators
  ;                                       !- Number of Times Runperiod to be Repeated

OS:YearDescription,
  {e1d6f696-991f-4453-bae7-44cde4ce66cf}, !- Handle
  2007,                                   !- Calendar Year
  ,                                       !- Day of Week for Start Day
  ;                                       !- Is Leap Year

OS:ThermalZone,
  {fd60bace-ffca-4be5-b10b-c335561536ce}, !- Handle
  living zone,                            !- Name
  ,                                       !- Multiplier
  ,                                       !- Ceiling Height {m}
  ,                                       !- Volume {m3}
  ,                                       !- Floor Area {m2}
  ,                                       !- Zone Inside Convection Algorithm
  ,                                       !- Zone Outside Convection Algorithm
  ,                                       !- Zone Conditioning Equipment List Name
  {90802eaf-1b89-47b7-8aac-3e952f09e800}, !- Zone Air Inlet Port List
  {840f36ec-4a55-4088-a9a7-a8b0b7450c61}, !- Zone Air Exhaust Port List
  {3e7f1e53-f947-4bbf-a25d-f82e5a61c8a7}, !- Zone Air Node Name
  {4e5fdbbb-5e67-4610-b03a-31a35a7d4145}, !- Zone Return Air Port List
  ,                                       !- Primary Daylighting Control Name
  ,                                       !- Fraction of Zone Controlled by Primary Daylighting Control
  ,                                       !- Secondary Daylighting Control Name
  ,                                       !- Fraction of Zone Controlled by Secondary Daylighting Control
  ,                                       !- Illuminance Map Name
  ,                                       !- Group Rendering Name
  {7f046fd2-5d4d-4800-8190-9d61dfac06dd}, !- Thermostat Name
  No;                                     !- Use Ideal Air Loads

OS:Node,
  {3a64f69c-e0a4-4710-a021-7efe133ee345}, !- Handle
  Node 1,                                 !- Name
  {3e7f1e53-f947-4bbf-a25d-f82e5a61c8a7}, !- Inlet Port
  ;                                       !- Outlet Port

OS:Connection,
  {3e7f1e53-f947-4bbf-a25d-f82e5a61c8a7}, !- Handle
  {395e571b-c182-4e3e-9f29-1926a9457d5d}, !- Name
  {fd60bace-ffca-4be5-b10b-c335561536ce}, !- Source Object
  11,                                     !- Outlet Port
  {3a64f69c-e0a4-4710-a021-7efe133ee345}, !- Target Object
  2;                                      !- Inlet Port

OS:PortList,
  {90802eaf-1b89-47b7-8aac-3e952f09e800}, !- Handle
  {3e68aa2c-a77f-4f55-bef3-1421e3cdd8ce}, !- Name
  {fd60bace-ffca-4be5-b10b-c335561536ce}, !- HVAC Component
  {feed3b82-691f-4ea8-b7c5-93ff318a23e2}; !- Port 1

OS:PortList,
  {840f36ec-4a55-4088-a9a7-a8b0b7450c61}, !- Handle
  {c5536af5-5958-4d42-a202-ef8e30692ff7}, !- Name
  {fd60bace-ffca-4be5-b10b-c335561536ce}; !- HVAC Component

OS:PortList,
  {4e5fdbbb-5e67-4610-b03a-31a35a7d4145}, !- Handle
  {de2e4aaf-54db-4156-a9ee-f45efdd67a22}, !- Name
  {fd60bace-ffca-4be5-b10b-c335561536ce}, !- HVAC Component
  {9bfb59c5-0de1-4421-b1c4-bc817afd1cc3}; !- Port 1

OS:Sizing:Zone,
  {2ac0a76b-b583-42d0-b890-8d0964e72321}, !- Handle
  {fd60bace-ffca-4be5-b10b-c335561536ce}, !- Zone or ZoneList Name
  SupplyAirTemperature,                   !- Zone Cooling Design Supply Air Temperature Input Method
  14,                                     !- Zone Cooling Design Supply Air Temperature {C}
  11.11,                                  !- Zone Cooling Design Supply Air Temperature Difference {deltaC}
  SupplyAirTemperature,                   !- Zone Heating Design Supply Air Temperature Input Method
  40,                                     !- Zone Heating Design Supply Air Temperature {C}
  11.11,                                  !- Zone Heating Design Supply Air Temperature Difference {deltaC}
  0.0085,                                 !- Zone Cooling Design Supply Air Humidity Ratio {kg-H2O/kg-air}
  0.008,                                  !- Zone Heating Design Supply Air Humidity Ratio {kg-H2O/kg-air}
  ,                                       !- Zone Heating Sizing Factor
  ,                                       !- Zone Cooling Sizing Factor
  DesignDay,                              !- Cooling Design Air Flow Method
  ,                                       !- Cooling Design Air Flow Rate {m3/s}
  ,                                       !- Cooling Minimum Air Flow per Zone Floor Area {m3/s-m2}
  ,                                       !- Cooling Minimum Air Flow {m3/s}
  ,                                       !- Cooling Minimum Air Flow Fraction
  DesignDay,                              !- Heating Design Air Flow Method
  ,                                       !- Heating Design Air Flow Rate {m3/s}
  ,                                       !- Heating Maximum Air Flow per Zone Floor Area {m3/s-m2}
  ,                                       !- Heating Maximum Air Flow {m3/s}
  ,                                       !- Heating Maximum Air Flow Fraction
  ,                                       !- Design Zone Air Distribution Effectiveness in Cooling Mode
  ,                                       !- Design Zone Air Distribution Effectiveness in Heating Mode
  No,                                     !- Account for Dedicated Outdoor Air System
  NeutralSupplyAir,                       !- Dedicated Outdoor Air System Control Strategy
  autosize,                               !- Dedicated Outdoor Air Low Setpoint Temperature for Design {C}
  autosize;                               !- Dedicated Outdoor Air High Setpoint Temperature for Design {C}

OS:ZoneHVAC:EquipmentList,
  {518c9512-1499-4411-9b48-a1701f34bbbf}, !- Handle
  Zone HVAC Equipment List 1,             !- Name
  {fd60bace-ffca-4be5-b10b-c335561536ce}, !- Thermal Zone
  SequentialLoad,                         !- Load Distribution Scheme
  {61f59bad-932d-4fce-8b6e-7c80ee2d53ea}, !- Zone Equipment 1
  1,                                      !- Zone Equipment Cooling Sequence 1
  1,                                      !- Zone Equipment Heating or No-Load Sequence 1
  ,                                       !- Zone Equipment Sequential Cooling Fraction Schedule Name 1
  ,                                       !- Zone Equipment Sequential Heating Fraction Schedule Name 1
  {e1a18086-2d10-4d6b-81af-5bba8c4dd969}, !- Zone Equipment 2
  2,                                      !- Zone Equipment Cooling Sequence 2
  2,                                      !- Zone Equipment Heating or No-Load Sequence 2
  ,                                       !- Zone Equipment Sequential Cooling Fraction Schedule Name 2
  ;                                       !- Zone Equipment Sequential Heating Fraction Schedule Name 2

OS:ThermalZone,
  {2b57f409-5e88-42b3-882c-3d9c2282f16a}, !- Handle
  garage zone,                            !- Name
  ,                                       !- Multiplier
  ,                                       !- Ceiling Height {m}
  ,                                       !- Volume {m3}
  ,                                       !- Floor Area {m2}
  ,                                       !- Zone Inside Convection Algorithm
  ,                                       !- Zone Outside Convection Algorithm
  ,                                       !- Zone Conditioning Equipment List Name
  {97b6ce03-9063-4a97-94f4-39bc4eca6ca8}, !- Zone Air Inlet Port List
  {ddbaeffc-9ca6-4ca2-a80f-cbf8f0dc7d51}, !- Zone Air Exhaust Port List
  {5a557ad8-2b89-4719-90d4-973b52014bfc}, !- Zone Air Node Name
  {489ba3a9-be07-41e8-b9fe-b1009ac69e07}, !- Zone Return Air Port List
  ,                                       !- Primary Daylighting Control Name
  ,                                       !- Fraction of Zone Controlled by Primary Daylighting Control
  ,                                       !- Secondary Daylighting Control Name
  ,                                       !- Fraction of Zone Controlled by Secondary Daylighting Control
  ,                                       !- Illuminance Map Name
  ,                                       !- Group Rendering Name
  ,                                       !- Thermostat Name
  No;                                     !- Use Ideal Air Loads

OS:Node,
  {7b84a575-a7d3-49b7-8184-fc4b5e8ed56b}, !- Handle
  Node 2,                                 !- Name
  {5a557ad8-2b89-4719-90d4-973b52014bfc}, !- Inlet Port
  ;                                       !- Outlet Port

OS:Connection,
  {5a557ad8-2b89-4719-90d4-973b52014bfc}, !- Handle
  {d4d12840-8b72-4ffb-ac9a-d9e5e52b43e9}, !- Name
  {2b57f409-5e88-42b3-882c-3d9c2282f16a}, !- Source Object
  11,                                     !- Outlet Port
  {7b84a575-a7d3-49b7-8184-fc4b5e8ed56b}, !- Target Object
  2;                                      !- Inlet Port

OS:PortList,
  {97b6ce03-9063-4a97-94f4-39bc4eca6ca8}, !- Handle
  {6fff5249-ecfe-4380-8f84-729a3335a551}, !- Name
  {2b57f409-5e88-42b3-882c-3d9c2282f16a}; !- HVAC Component

OS:PortList,
  {ddbaeffc-9ca6-4ca2-a80f-cbf8f0dc7d51}, !- Handle
  {58df2050-58ee-488f-95e0-0701140a4148}, !- Name
  {2b57f409-5e88-42b3-882c-3d9c2282f16a}; !- HVAC Component

OS:PortList,
  {489ba3a9-be07-41e8-b9fe-b1009ac69e07}, !- Handle
  {5768762a-5963-4ea8-877d-5abe37a7f92d}, !- Name
  {2b57f409-5e88-42b3-882c-3d9c2282f16a}; !- HVAC Component

OS:Sizing:Zone,
  {a6f39d30-47e7-4ef6-9d29-43f19cf97b7a}, !- Handle
  {2b57f409-5e88-42b3-882c-3d9c2282f16a}, !- Zone or ZoneList Name
  SupplyAirTemperature,                   !- Zone Cooling Design Supply Air Temperature Input Method
  14,                                     !- Zone Cooling Design Supply Air Temperature {C}
  11.11,                                  !- Zone Cooling Design Supply Air Temperature Difference {deltaC}
  SupplyAirTemperature,                   !- Zone Heating Design Supply Air Temperature Input Method
  40,                                     !- Zone Heating Design Supply Air Temperature {C}
  11.11,                                  !- Zone Heating Design Supply Air Temperature Difference {deltaC}
  0.0085,                                 !- Zone Cooling Design Supply Air Humidity Ratio {kg-H2O/kg-air}
  0.008,                                  !- Zone Heating Design Supply Air Humidity Ratio {kg-H2O/kg-air}
  ,                                       !- Zone Heating Sizing Factor
  ,                                       !- Zone Cooling Sizing Factor
  DesignDay,                              !- Cooling Design Air Flow Method
  ,                                       !- Cooling Design Air Flow Rate {m3/s}
  ,                                       !- Cooling Minimum Air Flow per Zone Floor Area {m3/s-m2}
  ,                                       !- Cooling Minimum Air Flow {m3/s}
  ,                                       !- Cooling Minimum Air Flow Fraction
  DesignDay,                              !- Heating Design Air Flow Method
  ,                                       !- Heating Design Air Flow Rate {m3/s}
  ,                                       !- Heating Maximum Air Flow per Zone Floor Area {m3/s-m2}
  ,                                       !- Heating Maximum Air Flow {m3/s}
  ,                                       !- Heating Maximum Air Flow Fraction
  ,                                       !- Design Zone Air Distribution Effectiveness in Cooling Mode
  ,                                       !- Design Zone Air Distribution Effectiveness in Heating Mode
  No,                                     !- Account for Dedicated Outdoor Air System
  NeutralSupplyAir,                       !- Dedicated Outdoor Air System Control Strategy
  autosize,                               !- Dedicated Outdoor Air Low Setpoint Temperature for Design {C}
  autosize;                               !- Dedicated Outdoor Air High Setpoint Temperature for Design {C}

OS:ZoneHVAC:EquipmentList,
  {c7677f1c-d49b-40bd-ac3a-0bcd195acfd0}, !- Handle
  Zone HVAC Equipment List 2,             !- Name
  {2b57f409-5e88-42b3-882c-3d9c2282f16a}; !- Thermal Zone

OS:Space,
  {8ebe65ee-3228-49c4-a1e0-a4f512396ad7}, !- Handle
  garage space,                           !- Name
  {496c87f5-3583-4ec1-9422-3ad05d8058b3}, !- Space Type Name
  ,                                       !- Default Construction Set Name
  ,                                       !- Default Schedule Set Name
  -0,                                     !- Direction of Relative North {deg}
  0,                                      !- X Origin {m}
  0,                                      !- Y Origin {m}
  0,                                      !- Z Origin {m}
  ,                                       !- Building Story Name
  {2b57f409-5e88-42b3-882c-3d9c2282f16a}; !- Thermal Zone Name

OS:Surface,
  {9f5830aa-70fb-48ad-b6c9-c0c167142833}, !- Handle
  Surface 1,                              !- Name
  Floor,                                  !- Surface Type
  ,                                       !- Construction Name
  {8ebe65ee-3228-49c4-a1e0-a4f512396ad7}, !- Space Name
  Foundation,                             !- Outside Boundary Condition
  ,                                       !- Outside Boundary Condition Object
  NoSun,                                  !- Sun Exposure
  NoWind,                                 !- Wind Exposure
  ,                                       !- View Factor to Ground
  ,                                       !- Number of Vertices
  5.57695129776527, -3.048, 0,            !- X,Y,Z Vertex 1 {m}
  5.57695129776527, 3.048, 0,             !- X,Y,Z Vertex 2 {m}
  11.6729512977653, 3.048, 0,             !- X,Y,Z Vertex 3 {m}
  11.6729512977653, -3.048, 0;            !- X,Y,Z Vertex 4 {m}

OS:Surface,
  {0a909a70-2447-458b-b565-c2174647bfeb}, !- Handle
  Surface 2,                              !- Name
  Wall,                                   !- Surface Type
  ,                                       !- Construction Name
  {8ebe65ee-3228-49c4-a1e0-a4f512396ad7}, !- Space Name
  Surface,                                !- Outside Boundary Condition
  {f72e636e-89a3-41fe-bbde-2bb2373b06f7}, !- Outside Boundary Condition Object
  NoSun,                                  !- Sun Exposure
  NoWind,                                 !- Wind Exposure
  ,                                       !- View Factor to Ground
  ,                                       !- Number of Vertices
  5.57695129776527, 3.048, 2.4384,        !- X,Y,Z Vertex 1 {m}
  5.57695129776527, 3.048, 0,             !- X,Y,Z Vertex 2 {m}
  5.57695129776527, 0, 0,                 !- X,Y,Z Vertex 3 {m}
  5.57695129776527, 0, 2.4384;            !- X,Y,Z Vertex 4 {m}

OS:Surface,
  {b9585b23-47b9-4f97-8bb0-ce3351ae9280}, !- Handle
  Surface 3,                              !- Name
  Wall,                                   !- Surface Type
  ,                                       !- Construction Name
  {8ebe65ee-3228-49c4-a1e0-a4f512396ad7}, !- Space Name
  Surface,                                !- Outside Boundary Condition
  {fc5811f8-b37c-40ea-9427-28cbfc460607}, !- Outside Boundary Condition Object
  NoSun,                                  !- Sun Exposure
  NoWind,                                 !- Wind Exposure
  ,                                       !- View Factor to Ground
  ,                                       !- Number of Vertices
  11.6729512977653, 3.048, 2.4384,        !- X,Y,Z Vertex 1 {m}
  11.6729512977653, 3.048, 0,             !- X,Y,Z Vertex 2 {m}
  5.57695129776527, 3.048, 0,             !- X,Y,Z Vertex 3 {m}
  5.57695129776527, 3.048, 2.4384;        !- X,Y,Z Vertex 4 {m}

OS:Surface,
  {8b682bf5-af70-4ba9-a1be-2b3126c8b6da}, !- Handle
  Surface 4,                              !- Name
  Wall,                                   !- Surface Type
  ,                                       !- Construction Name
  {8ebe65ee-3228-49c4-a1e0-a4f512396ad7}, !- Space Name
  Outdoors,                               !- Outside Boundary Condition
  ,                                       !- Outside Boundary Condition Object
  SunExposed,                             !- Sun Exposure
  WindExposed,                            !- Wind Exposure
  ,                                       !- View Factor to Ground
  ,                                       !- Number of Vertices
  11.6729512977653, -3.048, 2.4384,       !- X,Y,Z Vertex 1 {m}
  11.6729512977653, -3.048, 0,            !- X,Y,Z Vertex 2 {m}
  11.6729512977653, 3.048, 0,             !- X,Y,Z Vertex 3 {m}
  11.6729512977653, 3.048, 2.4384;        !- X,Y,Z Vertex 4 {m}

OS:Surface,
  {f2f6ac7a-bed8-4ed4-b2f4-c8a178fbfde2}, !- Handle
  Surface 5,                              !- Name
  Wall,                                   !- Surface Type
  ,                                       !- Construction Name
  {8ebe65ee-3228-49c4-a1e0-a4f512396ad7}, !- Space Name
  Outdoors,                               !- Outside Boundary Condition
  ,                                       !- Outside Boundary Condition Object
  SunExposed,                             !- Sun Exposure
  WindExposed,                            !- Wind Exposure
  ,                                       !- View Factor to Ground
  ,                                       !- Number of Vertices
  5.57695129776527, -3.048, 2.4384,       !- X,Y,Z Vertex 1 {m}
  5.57695129776527, -3.048, 0,            !- X,Y,Z Vertex 2 {m}
  11.6729512977653, -3.048, 0,            !- X,Y,Z Vertex 3 {m}
  11.6729512977653, -3.048, 2.4384;       !- X,Y,Z Vertex 4 {m}

OS:Surface,
  {65aed613-ba84-451d-a75b-7f809baec092}, !- Handle
  Surface 6,                              !- Name
  RoofCeiling,                            !- Surface Type
  ,                                       !- Construction Name
  {8ebe65ee-3228-49c4-a1e0-a4f512396ad7}, !- Space Name
  Surface,                                !- Outside Boundary Condition
  {c8e87fe7-6782-44b5-bbda-1a152b03eb0a}, !- Outside Boundary Condition Object
  NoSun,                                  !- Sun Exposure
  NoWind,                                 !- Wind Exposure
  ,                                       !- View Factor to Ground
  ,                                       !- Number of Vertices
  11.6729512977653, -3.048, 2.4384,       !- X,Y,Z Vertex 1 {m}
  11.6729512977653, 3.048, 2.4384,        !- X,Y,Z Vertex 2 {m}
  5.57695129776527, 3.048, 2.4384,        !- X,Y,Z Vertex 3 {m}
  5.57695129776527, -3.048, 2.4384;       !- X,Y,Z Vertex 4 {m}

OS:SpaceType,
  {496c87f5-3583-4ec1-9422-3ad05d8058b3}, !- Handle
  Space Type 1,                           !- Name
  ,                                       !- Default Construction Set Name
  ,                                       !- Default Schedule Set Name
  ,                                       !- Group Rendering Name
  ,                                       !- Design Specification Outdoor Air Object Name
  ,                                       !- Standards Template
  ,                                       !- Standards Building Type
  garage;                                 !- Standards Space Type

OS:Space,
  {a2e309b2-5b36-4536-829a-4deb7180d0e7}, !- Handle
  living space,                           !- Name
  {7c7bd145-e7a3-4583-8e1a-602d65f30cd7}, !- Space Type Name
  ,                                       !- Default Construction Set Name
  ,                                       !- Default Schedule Set Name
  -0,                                     !- Direction of Relative North {deg}
  0,                                      !- X Origin {m}
  0,                                      !- Y Origin {m}
  0,                                      !- Z Origin {m}
  ,                                       !- Building Story Name
  {fd60bace-ffca-4be5-b10b-c335561536ce}, !- Thermal Zone Name
  ,                                       !- Part of Total Floor Area
  ,                                       !- Design Specification Outdoor Air Object Name
  {edb80744-2edb-48b6-a087-33d89fe2d20f}; !- Building Unit Name

OS:Surface,
  {69996ac2-0678-4c2d-87ae-c5392d1b045c}, !- Handle
  Surface 7,                              !- Name
  Floor,                                  !- Surface Type
  ,                                       !- Construction Name
  {a2e309b2-5b36-4536-829a-4deb7180d0e7}, !- Space Name
  Surface,                                !- Outside Boundary Condition
  {cd556d59-74b3-4f9e-83e0-089ec27392be}, !- Outside Boundary Condition Object
  NoSun,                                  !- Sun Exposure
  NoWind,                                 !- Wind Exposure
  ,                                       !- View Factor to Ground
  ,                                       !- Number of Vertices
  0, 0, 0,                                !- X,Y,Z Vertex 1 {m}
  0, 5.83647564888264, 0,                 !- X,Y,Z Vertex 2 {m}
  11.6729512977653, 5.83647564888264, 0,  !- X,Y,Z Vertex 3 {m}
  11.6729512977653, 3.048, 0,             !- X,Y,Z Vertex 4 {m}
  5.57695129776527, 3.048, 0,             !- X,Y,Z Vertex 5 {m}
  5.57695129776527, 0, 0;                 !- X,Y,Z Vertex 6 {m}

OS:Surface,
  {b315d01a-2510-4b99-a638-472effadeb90}, !- Handle
  Surface 8,                              !- Name
  Wall,                                   !- Surface Type
  ,                                       !- Construction Name
  {a2e309b2-5b36-4536-829a-4deb7180d0e7}, !- Space Name
  Outdoors,                               !- Outside Boundary Condition
  ,                                       !- Outside Boundary Condition Object
  SunExposed,                             !- Sun Exposure
  WindExposed,                            !- Wind Exposure
  ,                                       !- View Factor to Ground
  ,                                       !- Number of Vertices
  0, 5.83647564888264, 2.4384,            !- X,Y,Z Vertex 1 {m}
  0, 5.83647564888264, 0,                 !- X,Y,Z Vertex 2 {m}
  0, 0, 0,                                !- X,Y,Z Vertex 3 {m}
  0, 0, 2.4384;                           !- X,Y,Z Vertex 4 {m}

OS:Surface,
  {579596a1-5262-4861-b14a-b37a33571751}, !- Handle
  Surface 9,                              !- Name
  Wall,                                   !- Surface Type
  ,                                       !- Construction Name
  {a2e309b2-5b36-4536-829a-4deb7180d0e7}, !- Space Name
  Outdoors,                               !- Outside Boundary Condition
  ,                                       !- Outside Boundary Condition Object
  SunExposed,                             !- Sun Exposure
  WindExposed,                            !- Wind Exposure
  ,                                       !- View Factor to Ground
  ,                                       !- Number of Vertices
  11.6729512977653, 5.83647564888264, 2.4384, !- X,Y,Z Vertex 1 {m}
  11.6729512977653, 5.83647564888264, 0,  !- X,Y,Z Vertex 2 {m}
  0, 5.83647564888264, 0,                 !- X,Y,Z Vertex 3 {m}
  0, 5.83647564888264, 2.4384;            !- X,Y,Z Vertex 4 {m}

OS:Surface,
  {33006840-45c5-4692-991c-1e5c7708a357}, !- Handle
  Surface 10,                             !- Name
  Wall,                                   !- Surface Type
  ,                                       !- Construction Name
  {a2e309b2-5b36-4536-829a-4deb7180d0e7}, !- Space Name
  Outdoors,                               !- Outside Boundary Condition
  ,                                       !- Outside Boundary Condition Object
  SunExposed,                             !- Sun Exposure
  WindExposed,                            !- Wind Exposure
  ,                                       !- View Factor to Ground
  ,                                       !- Number of Vertices
  11.6729512977653, 3.048, 2.4384,        !- X,Y,Z Vertex 1 {m}
  11.6729512977653, 3.048, 0,             !- X,Y,Z Vertex 2 {m}
  11.6729512977653, 5.83647564888264, 0,  !- X,Y,Z Vertex 3 {m}
  11.6729512977653, 5.83647564888264, 2.4384; !- X,Y,Z Vertex 4 {m}

OS:Surface,
  {fc5811f8-b37c-40ea-9427-28cbfc460607}, !- Handle
  Surface 11,                             !- Name
  Wall,                                   !- Surface Type
  ,                                       !- Construction Name
  {a2e309b2-5b36-4536-829a-4deb7180d0e7}, !- Space Name
  Surface,                                !- Outside Boundary Condition
  {b9585b23-47b9-4f97-8bb0-ce3351ae9280}, !- Outside Boundary Condition Object
  NoSun,                                  !- Sun Exposure
  NoWind,                                 !- Wind Exposure
  ,                                       !- View Factor to Ground
  ,                                       !- Number of Vertices
  5.57695129776527, 3.048, 2.4384,        !- X,Y,Z Vertex 1 {m}
  5.57695129776527, 3.048, 0,             !- X,Y,Z Vertex 2 {m}
  11.6729512977653, 3.048, 0,             !- X,Y,Z Vertex 3 {m}
  11.6729512977653, 3.048, 2.4384;        !- X,Y,Z Vertex 4 {m}

OS:Surface,
  {f72e636e-89a3-41fe-bbde-2bb2373b06f7}, !- Handle
  Surface 12,                             !- Name
  Wall,                                   !- Surface Type
  ,                                       !- Construction Name
  {a2e309b2-5b36-4536-829a-4deb7180d0e7}, !- Space Name
  Surface,                                !- Outside Boundary Condition
  {0a909a70-2447-458b-b565-c2174647bfeb}, !- Outside Boundary Condition Object
  NoSun,                                  !- Sun Exposure
  NoWind,                                 !- Wind Exposure
  ,                                       !- View Factor to Ground
  ,                                       !- Number of Vertices
  5.57695129776527, 0, 2.4384,            !- X,Y,Z Vertex 1 {m}
  5.57695129776527, 0, 0,                 !- X,Y,Z Vertex 2 {m}
  5.57695129776527, 3.048, 0,             !- X,Y,Z Vertex 3 {m}
  5.57695129776527, 3.048, 2.4384;        !- X,Y,Z Vertex 4 {m}

OS:Surface,
  {3def269b-f10f-4bc6-a57f-c52afaf6658b}, !- Handle
  Surface 13,                             !- Name
  Wall,                                   !- Surface Type
  ,                                       !- Construction Name
  {a2e309b2-5b36-4536-829a-4deb7180d0e7}, !- Space Name
  Outdoors,                               !- Outside Boundary Condition
  ,                                       !- Outside Boundary Condition Object
  SunExposed,                             !- Sun Exposure
  WindExposed,                            !- Wind Exposure
  ,                                       !- View Factor to Ground
  ,                                       !- Number of Vertices
  0, 0, 2.4384,                           !- X,Y,Z Vertex 1 {m}
  0, 0, 0,                                !- X,Y,Z Vertex 2 {m}
  5.57695129776527, 0, 0,                 !- X,Y,Z Vertex 3 {m}
  5.57695129776527, 0, 2.4384;            !- X,Y,Z Vertex 4 {m}

OS:Surface,
  {be5ae743-7a10-4b5c-a721-0684aeebe81a}, !- Handle
  Surface 14,                             !- Name
  RoofCeiling,                            !- Surface Type
  ,                                       !- Construction Name
  {a2e309b2-5b36-4536-829a-4deb7180d0e7}, !- Space Name
  Surface,                                !- Outside Boundary Condition
  {b92b6248-ba95-4979-b4f4-f7fe8e434ce9}, !- Outside Boundary Condition Object
  NoSun,                                  !- Sun Exposure
  NoWind,                                 !- Wind Exposure
  ,                                       !- View Factor to Ground
  ,                                       !- Number of Vertices
  5.57695129776527, 0, 2.4384,            !- X,Y,Z Vertex 1 {m}
  5.57695129776527, 3.048, 2.4384,        !- X,Y,Z Vertex 2 {m}
  11.6729512977653, 3.048, 2.4384,        !- X,Y,Z Vertex 3 {m}