!- NOTE: Auto-generated from /test/osw_files/SFD_2000sqft_2story_SL_GRG_FR_3Beds_2Baths_Denver_Furnace_CentralAC.osw

OS:Version,
  {6fb7273b-5776-4637-a711-46b8d6654856}, !- Handle
  2.9.0;                                  !- Version Identifier

OS:SimulationControl,
  {f7108e1a-a57d-41a4-b828-374c45bad31e}, !- Handle
  ,                                       !- Do Zone Sizing Calculation
  ,                                       !- Do System Sizing Calculation
  ,                                       !- Do Plant Sizing Calculation
  No;                                     !- Run Simulation for Sizing Periods

OS:Timestep,
  {68102a9c-44f5-4230-9c2d-b775e6e4f25b}, !- Handle
  6;                                      !- Number of Timesteps per Hour

OS:ShadowCalculation,
  {776c47bd-4b0f-4780-8457-15bcb1a2d4fb}, !- Handle
  20,                                     !- Calculation Frequency
  200;                                    !- Maximum Figures in Shadow Overlap Calculations

OS:SurfaceConvectionAlgorithm:Outside,
  {7850bdc1-1b80-4cc7-9bd5-d31794f6683d}, !- Handle
  DOE-2;                                  !- Algorithm

OS:SurfaceConvectionAlgorithm:Inside,
  {4267e7e5-6147-4125-995c-b4f240a54569}, !- Handle
  TARP;                                   !- Algorithm

OS:ZoneCapacitanceMultiplier:ResearchSpecial,
  {0b2ca33a-27cc-4fbd-8604-306be73d87bd}, !- Handle
  ,                                       !- Temperature Capacity Multiplier
  15,                                     !- Humidity Capacity Multiplier
  ;                                       !- Carbon Dioxide Capacity Multiplier

OS:RunPeriod,
  {11a056be-f0c2-413c-a5c3-a746351ba02f}, !- Handle
  Run Period 1,                           !- Name
  1,                                      !- Begin Month
  1,                                      !- Begin Day of Month
  12,                                     !- End Month
  31,                                     !- End Day of Month
  ,                                       !- Use Weather File Holidays and Special Days
  ,                                       !- Use Weather File Daylight Saving Period
  ,                                       !- Apply Weekend Holiday Rule
  ,                                       !- Use Weather File Rain Indicators
  ,                                       !- Use Weather File Snow Indicators
  ;                                       !- Number of Times Runperiod to be Repeated

OS:YearDescription,
  {00c9deeb-0956-4a89-8ad5-e7290cbbcba6}, !- Handle
  2007,                                   !- Calendar Year
  ,                                       !- Day of Week for Start Day
  ;                                       !- Is Leap Year

OS:WeatherFile,
  {7e6f75e2-9891-4864-818d-886486723ad3}, !- Handle
  Denver Intl Ap,                         !- City
  CO,                                     !- State Province Region
  USA,                                    !- Country
  TMY3,                                   !- Data Source
  725650,                                 !- WMO Number
  39.83,                                  !- Latitude {deg}
  -104.65,                                !- Longitude {deg}
  -7,                                     !- Time Zone {hr}
  1650,                                   !- Elevation {m}
  file:../weather/USA_CO_Denver.Intl.AP.725650_TMY3.epw, !- Url
  E23378AA;                               !- Checksum

OS:AdditionalProperties,
  {785cb0a5-acb8-47bf-8b9a-0b8de8c0029c}, !- Handle
  {7e6f75e2-9891-4864-818d-886486723ad3}, !- Object Name
  EPWHeaderCity,                          !- Feature Name 1
  String,                                 !- Feature Data Type 1
  Denver Intl Ap,                         !- Feature Value 1
  EPWHeaderState,                         !- Feature Name 2
  String,                                 !- Feature Data Type 2
  CO,                                     !- Feature Value 2
  EPWHeaderCountry,                       !- Feature Name 3
  String,                                 !- Feature Data Type 3
  USA,                                    !- Feature Value 3
  EPWHeaderDataSource,                    !- Feature Name 4
  String,                                 !- Feature Data Type 4
  TMY3,                                   !- Feature Value 4
  EPWHeaderStation,                       !- Feature Name 5
  String,                                 !- Feature Data Type 5
  725650,                                 !- Feature Value 5
  EPWHeaderLatitude,                      !- Feature Name 6
  Double,                                 !- Feature Data Type 6
  39.829999999999998,                     !- Feature Value 6
  EPWHeaderLongitude,                     !- Feature Name 7
  Double,                                 !- Feature Data Type 7
  -104.65000000000001,                    !- Feature Value 7
  EPWHeaderTimezone,                      !- Feature Name 8
  Double,                                 !- Feature Data Type 8
  -7,                                     !- Feature Value 8
  EPWHeaderAltitude,                      !- Feature Name 9
  Double,                                 !- Feature Data Type 9
  5413.3858267716532,                     !- Feature Value 9
  EPWHeaderLocalPressure,                 !- Feature Name 10
  Double,                                 !- Feature Data Type 10
  0.81937567683596546,                    !- Feature Value 10
  EPWHeaderRecordsPerHour,                !- Feature Name 11
  Double,                                 !- Feature Data Type 11
  0,                                      !- Feature Value 11
  EPWDataAnnualAvgDrybulb,                !- Feature Name 12
  Double,                                 !- Feature Data Type 12
  51.575616438356228,                     !- Feature Value 12
  EPWDataAnnualMinDrybulb,                !- Feature Name 13
  Double,                                 !- Feature Data Type 13
  -2.9200000000000017,                    !- Feature Value 13
  EPWDataAnnualMaxDrybulb,                !- Feature Name 14
  Double,                                 !- Feature Data Type 14
  104,                                    !- Feature Value 14
  EPWDataCDD50F,                          !- Feature Name 15
  Double,                                 !- Feature Data Type 15
  3072.2925000000005,                     !- Feature Value 15
  EPWDataCDD65F,                          !- Feature Name 16
  Double,                                 !- Feature Data Type 16
  883.62000000000035,                     !- Feature Value 16
  EPWDataHDD50F,                          !- Feature Name 17
  Double,                                 !- Feature Data Type 17
  2497.1925000000001,                     !- Feature Value 17
  EPWDataHDD65F,                          !- Feature Name 18
  Double,                                 !- Feature Data Type 18
  5783.5200000000013,                     !- Feature Value 18
  EPWDataAnnualAvgWindspeed,              !- Feature Name 19
  Double,                                 !- Feature Data Type 19
  3.9165296803649667,                     !- Feature Value 19
  EPWDataMonthlyAvgDrybulbs,              !- Feature Name 20
  String,                                 !- Feature Data Type 20
  33.4191935483871&#4431.90142857142857&#4443.02620967741937&#4442.48624999999999&#4459.877741935483854&#4473.57574999999997&#4472.07975806451608&#4472.70008064516134&#4466.49200000000006&#4450.079112903225806&#4437.218250000000005&#4434.582177419354835, !- Feature Value 20
  EPWDataGroundMonthlyTemps,              !- Feature Name 21
  String,                                 !- Feature Data Type 21
  44.08306285945173&#4440.89570904991865&#4440.64045432632048&#4442.153016571250646&#4448.225111118704206&#4454.268919273837525&#4459.508577937551024&#4462.82777283423508&#4463.10975667174995&#4460.41014950381947&#4455.304105212311526&#4449.445696474514364, !- Feature Value 21
  EPWDataWSF,                             !- Feature Name 22
  Double,                                 !- Feature Data Type 22
  0.58999999999999997,                    !- Feature Value 22
  EPWDataMonthlyAvgDailyHighDrybulbs,     !- Feature Name 23
  String,                                 !- Feature Data Type 23
  47.41032258064516&#4446.58642857142857&#4455.15032258064517&#4453.708&#4472.80193548387098&#4488.67600000000002&#4486.1858064516129&#4485.87225806451613&#4482.082&#4463.18064516129033&#4448.73400000000001&#4448.87935483870968, !- Feature Value 23
  EPWDataMonthlyAvgDailyLowDrybulbs,      !- Feature Name 24
  String,                                 !- Feature Data Type 24
  19.347741935483874&#4419.856428571428573&#4430.316129032258065&#4431.112&#4447.41612903225806&#4457.901999999999994&#4459.063870967741934&#4460.956774193548384&#4452.352000000000004&#4438.41612903225806&#4427.002000000000002&#4423.02903225806451, !- Feature Value 24
  EPWDesignHeatingDrybulb,                !- Feature Name 25
  Double,                                 !- Feature Data Type 25
  12.02,                                  !- Feature Value 25
  EPWDesignHeatingWindspeed,              !- Feature Name 26
  Double,                                 !- Feature Data Type 26
  2.8062500000000004,                     !- Feature Value 26
  EPWDesignCoolingDrybulb,                !- Feature Name 27
  Double,                                 !- Feature Data Type 27
  91.939999999999998,                     !- Feature Value 27
  EPWDesignCoolingWetbulb,                !- Feature Name 28
  Double,                                 !- Feature Data Type 28
  59.95131430195849,                      !- Feature Value 28
  EPWDesignCoolingHumidityRatio,          !- Feature Name 29
  Double,                                 !- Feature Data Type 29
  0.0059161086834698092,                  !- Feature Value 29
  EPWDesignCoolingWindspeed,              !- Feature Name 30
  Double,                                 !- Feature Data Type 30
  3.7999999999999989,                     !- Feature Value 30
  EPWDesignDailyTemperatureRange,         !- Feature Name 31
  Double,                                 !- Feature Data Type 31
  24.915483870967748,                     !- Feature Value 31
  EPWDesignDehumidDrybulb,                !- Feature Name 32
  Double,                                 !- Feature Data Type 32
  67.996785714285721,                     !- Feature Value 32
  EPWDesignDehumidHumidityRatio,          !- Feature Name 33
  Double,                                 !- Feature Data Type 33
  0.012133744170488724,                   !- Feature Value 33
  EPWDesignCoolingDirectNormal,           !- Feature Name 34
  Double,                                 !- Feature Data Type 34
  985,                                    !- Feature Value 34
  EPWDesignCoolingDiffuseHorizontal,      !- Feature Name 35
  Double,                                 !- Feature Data Type 35
  84;                                     !- Feature Value 35

OS:Site,
  {7f602cb4-48ed-4d1b-bd99-8c8cb658fafe}, !- Handle
  Denver Intl Ap_CO_USA,                  !- Name
  39.83,                                  !- Latitude {deg}
  -104.65,                                !- Longitude {deg}
  -7,                                     !- Time Zone {hr}
  1650,                                   !- Elevation {m}
  ;                                       !- Terrain

OS:ClimateZones,
  {612655c1-23b1-4180-b642-f09ff45dd14f}, !- Handle
  ,                                       !- Active Institution
  ,                                       !- Active Year
  ,                                       !- Climate Zone Institution Name 1
  ,                                       !- Climate Zone Document Name 1
  ,                                       !- Climate Zone Document Year 1
  ,                                       !- Climate Zone Value 1
  Building America,                       !- Climate Zone Institution Name 2
  ,                                       !- Climate Zone Document Name 2
  0,                                      !- Climate Zone Document Year 2
  Cold;                                   !- Climate Zone Value 2

OS:Site:WaterMainsTemperature,
  {bd245199-1894-44da-bad9-eb9e9c414eb1}, !- Handle
  Correlation,                            !- Calculation Method
  ,                                       !- Temperature Schedule Name
  10.8753424657535,                       !- Annual Average Outdoor Air Temperature {C}
  23.1524007936508;                       !- Maximum Difference In Monthly Average Outdoor Air Temperatures {deltaC}

OS:RunPeriodControl:DaylightSavingTime,
  {3588d936-9c61-479a-8704-5f8e58db103f}, !- Handle
  4/7,                                    !- Start Date
  10/26;                                  !- End Date

OS:Site:GroundTemperature:Deep,
  {9f1d5d48-3efe-4b3e-bcea-a54bf8cfbd1b}, !- Handle
  10.8753424657535,                       !- January Deep Ground Temperature {C}
  10.8753424657535,                       !- February Deep Ground Temperature {C}
  10.8753424657535,                       !- March Deep Ground Temperature {C}
  10.8753424657535,                       !- April Deep Ground Temperature {C}
  10.8753424657535,                       !- May Deep Ground Temperature {C}
  10.8753424657535,                       !- June Deep Ground Temperature {C}
  10.8753424657535,                       !- July Deep Ground Temperature {C}
  10.8753424657535,                       !- August Deep Ground Temperature {C}
  10.8753424657535,                       !- September Deep Ground Temperature {C}
  10.8753424657535,                       !- October Deep Ground Temperature {C}
  10.8753424657535,                       !- November Deep Ground Temperature {C}
  10.8753424657535;                       !- December Deep Ground Temperature {C}

OS:Building,
  {3ab1be26-9712-420c-b33d-6a7192fee0f8}, !- Handle
  Building 1,                             !- Name
  ,                                       !- Building Sector Type
  0,                                      !- North Axis {deg}
  ,                                       !- Nominal Floor to Floor Height {m}
  ,                                       !- Space Type Name
  ,                                       !- Default Construction Set Name
  ,                                       !- Default Schedule Set Name
  3,                                      !- Standards Number of Stories
  3,                                      !- Standards Number of Above Ground Stories
  ,                                       !- Standards Template
  singlefamilydetached,                   !- Standards Building Type
  1;                                      !- Standards Number of Living Units

OS:AdditionalProperties,
  {846a8d09-1d46-4238-b381-e855cf9d4cc4}, !- Handle
  {3ab1be26-9712-420c-b33d-6a7192fee0f8}, !- Object Name
  Total Units Represented,                !- Feature Name 1
  Integer,                                !- Feature Data Type 1
  1,                                      !- Feature Value 1
  Total Units Modeled,                    !- Feature Name 2
  Integer,                                !- Feature Data Type 2
  1,                                      !- Feature Value 2
  has_hvac_flue,                          !- Feature Name 3
  Boolean,                                !- Feature Data Type 3
  true;                                   !- Feature Value 3

OS:ThermalZone,
  {73922104-24d0-45eb-8a6d-7cc20319de59}, !- Handle
  living zone,                            !- Name
  ,                                       !- Multiplier
  ,                                       !- Ceiling Height {m}
  ,                                       !- Volume {m3}
  ,                                       !- Floor Area {m2}
  ,                                       !- Zone Inside Convection Algorithm
  ,                                       !- Zone Outside Convection Algorithm
  ,                                       !- Zone Conditioning Equipment List Name
  {6fed217a-755c-4437-b332-54e8008020cf}, !- Zone Air Inlet Port List
  {ded34f43-3729-4e2d-85a7-b00b43cfe7cc}, !- Zone Air Exhaust Port List
  {74099944-54bc-4413-85f6-ab4e736b1014}, !- Zone Air Node Name
  {f6501217-ec49-408f-8cc2-5c5a42bc62e9}, !- Zone Return Air Port List
  ,                                       !- Primary Daylighting Control Name
  ,                                       !- Fraction of Zone Controlled by Primary Daylighting Control
  ,                                       !- Secondary Daylighting Control Name
  ,                                       !- Fraction of Zone Controlled by Secondary Daylighting Control
  ,                                       !- Illuminance Map Name
  ,                                       !- Group Rendering Name
  {1300ae08-b944-4b55-80e9-74d158bf032f}, !- Thermostat Name
  No;                                     !- Use Ideal Air Loads

OS:Node,
  {a44e4790-b3cb-4493-b947-12c8c48b87e1}, !- Handle
  Node 1,                                 !- Name
  {74099944-54bc-4413-85f6-ab4e736b1014}, !- Inlet Port
  ;                                       !- Outlet Port

OS:Connection,
  {74099944-54bc-4413-85f6-ab4e736b1014}, !- Handle
  {178c24bb-59a5-4f44-aa3e-fe06da78ae7e}, !- Name
  {73922104-24d0-45eb-8a6d-7cc20319de59}, !- Source Object
  11,                                     !- Outlet Port
  {a44e4790-b3cb-4493-b947-12c8c48b87e1}, !- Target Object
  2;                                      !- Inlet Port

OS:PortList,
  {6fed217a-755c-4437-b332-54e8008020cf}, !- Handle
  {433cb5c3-6f6a-4fab-bd42-715965dcbbaf}, !- Name
  {73922104-24d0-45eb-8a6d-7cc20319de59}, !- HVAC Component
  {492247c0-c954-4f68-90e1-defbdd5e74f6}, !- Port 1
  {77439490-648b-40b1-ae42-663a8b7d1a94}; !- Port 2

OS:PortList,
  {ded34f43-3729-4e2d-85a7-b00b43cfe7cc}, !- Handle
  {ac364764-ee03-4c60-82b9-598cfa663e31}, !- Name
  {73922104-24d0-45eb-8a6d-7cc20319de59}; !- HVAC Component

OS:PortList,
  {f6501217-ec49-408f-8cc2-5c5a42bc62e9}, !- Handle
  {80afe319-883a-493b-95df-20e4302a2fc3}, !- Name
  {73922104-24d0-45eb-8a6d-7cc20319de59}, !- HVAC Component
  {d5aee4e5-63ac-4d0a-8b12-d91643aff6be}, !- Port 1
  {eba76f4a-b168-4759-a97b-a885a97cdcdd}; !- Port 2

OS:Sizing:Zone,
  {8a4edad4-8c8b-4dc6-bfdb-a9b40fd2012a}, !- Handle
  {73922104-24d0-45eb-8a6d-7cc20319de59}, !- Zone or ZoneList Name
  SupplyAirTemperature,                   !- Zone Cooling Design Supply Air Temperature Input Method
  14,                                     !- Zone Cooling Design Supply Air Temperature {C}
  11.11,                                  !- Zone Cooling Design Supply Air Temperature Difference {deltaC}
  SupplyAirTemperature,                   !- Zone Heating Design Supply Air Temperature Input Method
  40,                                     !- Zone Heating Design Supply Air Temperature {C}
  11.11,                                  !- Zone Heating Design Supply Air Temperature Difference {deltaC}
  0.0085,                                 !- Zone Cooling Design Supply Air Humidity Ratio {kg-H2O/kg-air}
  0.008,                                  !- Zone Heating Design Supply Air Humidity Ratio {kg-H2O/kg-air}
  ,                                       !- Zone Heating Sizing Factor
  ,                                       !- Zone Cooling Sizing Factor
  DesignDay,                              !- Cooling Design Air Flow Method
  ,                                       !- Cooling Design Air Flow Rate {m3/s}
  ,                                       !- Cooling Minimum Air Flow per Zone Floor Area {m3/s-m2}
  ,                                       !- Cooling Minimum Air Flow {m3/s}
  ,                                       !- Cooling Minimum Air Flow Fraction
  DesignDay,                              !- Heating Design Air Flow Method
  ,                                       !- Heating Design Air Flow Rate {m3/s}
  ,                                       !- Heating Maximum Air Flow per Zone Floor Area {m3/s-m2}
  ,                                       !- Heating Maximum Air Flow {m3/s}
  ,                                       !- Heating Maximum Air Flow Fraction
  ,                                       !- Design Zone Air Distribution Effectiveness in Cooling Mode
  ,                                       !- Design Zone Air Distribution Effectiveness in Heating Mode
  No,                                     !- Account for Dedicated Outdoor Air System
  NeutralSupplyAir,                       !- Dedicated Outdoor Air System Control Strategy
  autosize,                               !- Dedicated Outdoor Air Low Setpoint Temperature for Design {C}
  autosize;                               !- Dedicated Outdoor Air High Setpoint Temperature for Design {C}

OS:ZoneHVAC:EquipmentList,
  {03f6ca60-7a37-48d7-99a6-084059ab7c1c}, !- Handle
  Zone HVAC Equipment List 1,             !- Name
  {73922104-24d0-45eb-8a6d-7cc20319de59}, !- Thermal Zone
  SequentialLoad,                         !- Load Distribution Scheme
  {225bda9c-7e8b-4f7e-8e8a-c7abe92e55a8}, !- Zone Equipment 1
  1,                                      !- Zone Equipment Cooling Sequence 1
  1,                                      !- Zone Equipment Heating or No-Load Sequence 1
  ,                                       !- Zone Equipment Sequential Cooling Fraction Schedule Name 1
  ,                                       !- Zone Equipment Sequential Heating Fraction Schedule Name 1
  {4079118a-ead5-4ff6-9b8f-faac3eff303a}, !- Zone Equipment 2
  2,                                      !- Zone Equipment Cooling Sequence 2
  2,                                      !- Zone Equipment Heating or No-Load Sequence 2
  ,                                       !- Zone Equipment Sequential Cooling Fraction Schedule Name 2
  ;                                       !- Zone Equipment Sequential Heating Fraction Schedule Name 2

OS:ThermalZone,
  {86734264-5029-4886-b961-955665ec4a61}, !- Handle
  garage zone,                            !- Name
  ,                                       !- Multiplier
  ,                                       !- Ceiling Height {m}
  ,                                       !- Volume {m3}
  ,                                       !- Floor Area {m2}
  ,                                       !- Zone Inside Convection Algorithm
  ,                                       !- Zone Outside Convection Algorithm
  ,                                       !- Zone Conditioning Equipment List Name
  {0a03a322-24b7-410a-99f8-9f41005da600}, !- Zone Air Inlet Port List
  {553e7550-aeb0-4956-8af1-007fd24e6950}, !- Zone Air Exhaust Port List
  {c50fe41a-170c-447a-bd3b-9d76569c9182}, !- Zone Air Node Name
  {109e84fe-d73a-442a-be1f-505c0c2abd52}, !- Zone Return Air Port List
  ,                                       !- Primary Daylighting Control Name
  ,                                       !- Fraction of Zone Controlled by Primary Daylighting Control
  ,                                       !- Secondary Daylighting Control Name
  ,                                       !- Fraction of Zone Controlled by Secondary Daylighting Control
  ,                                       !- Illuminance Map Name
  ,                                       !- Group Rendering Name
  ,                                       !- Thermostat Name
  No;                                     !- Use Ideal Air Loads

OS:Node,
  {600fa182-fb8e-497e-96f9-e0bb45dd1d71}, !- Handle
  Node 2,                                 !- Name
  {c50fe41a-170c-447a-bd3b-9d76569c9182}, !- Inlet Port
  ;                                       !- Outlet Port

OS:Connection,
  {c50fe41a-170c-447a-bd3b-9d76569c9182}, !- Handle
  {6e638905-2422-42d2-a58a-dfbbdf7166a8}, !- Name
  {86734264-5029-4886-b961-955665ec4a61}, !- Source Object
  11,                                     !- Outlet Port
  {600fa182-fb8e-497e-96f9-e0bb45dd1d71}, !- Target Object
  2;                                      !- Inlet Port

OS:PortList,
  {0a03a322-24b7-410a-99f8-9f41005da600}, !- Handle
  {bcf7efb2-f588-444e-83db-555df5ec3a80}, !- Name
  {86734264-5029-4886-b961-955665ec4a61}; !- HVAC Component

OS:PortList,
  {553e7550-aeb0-4956-8af1-007fd24e6950}, !- Handle
  {0cb25642-b558-4fed-a005-874ac4908a02}, !- Name
  {86734264-5029-4886-b961-955665ec4a61}; !- HVAC Component

OS:PortList,
  {109e84fe-d73a-442a-be1f-505c0c2abd52}, !- Handle
  {f29b7c5a-7c54-4110-810d-150d18cee639}, !- Name
  {86734264-5029-4886-b961-955665ec4a61}; !- HVAC Component

OS:Sizing:Zone,
  {8e502bae-423f-4156-82d0-0d1e242a3630}, !- Handle
  {86734264-5029-4886-b961-955665ec4a61}, !- Zone or ZoneList Name
  SupplyAirTemperature,                   !- Zone Cooling Design Supply Air Temperature Input Method
  14,                                     !- Zone Cooling Design Supply Air Temperature {C}
  11.11,                                  !- Zone Cooling Design Supply Air Temperature Difference {deltaC}
  SupplyAirTemperature,                   !- Zone Heating Design Supply Air Temperature Input Method
  40,                                     !- Zone Heating Design Supply Air Temperature {C}
  11.11,                                  !- Zone Heating Design Supply Air Temperature Difference {deltaC}
  0.0085,                                 !- Zone Cooling Design Supply Air Humidity Ratio {kg-H2O/kg-air}
  0.008,                                  !- Zone Heating Design Supply Air Humidity Ratio {kg-H2O/kg-air}
  ,                                       !- Zone Heating Sizing Factor
  ,                                       !- Zone Cooling Sizing Factor
  DesignDay,                              !- Cooling Design Air Flow Method
  ,                                       !- Cooling Design Air Flow Rate {m3/s}
  ,                                       !- Cooling Minimum Air Flow per Zone Floor Area {m3/s-m2}
  ,                                       !- Cooling Minimum Air Flow {m3/s}
  ,                                       !- Cooling Minimum Air Flow Fraction
  DesignDay,                              !- Heating Design Air Flow Method
  ,                                       !- Heating Design Air Flow Rate {m3/s}
  ,                                       !- Heating Maximum Air Flow per Zone Floor Area {m3/s-m2}
  ,                                       !- Heating Maximum Air Flow {m3/s}
  ,                                       !- Heating Maximum Air Flow Fraction
  ,                                       !- Design Zone Air Distribution Effectiveness in Cooling Mode
  ,                                       !- Design Zone Air Distribution Effectiveness in Heating Mode
  No,                                     !- Account for Dedicated Outdoor Air System
  NeutralSupplyAir,                       !- Dedicated Outdoor Air System Control Strategy
  autosize,                               !- Dedicated Outdoor Air Low Setpoint Temperature for Design {C}
  autosize;                               !- Dedicated Outdoor Air High Setpoint Temperature for Design {C}

OS:ZoneHVAC:EquipmentList,
  {52402940-0cfe-4603-aa49-21ad2d9b42d2}, !- Handle
  Zone HVAC Equipment List 2,             !- Name
  {86734264-5029-4886-b961-955665ec4a61}; !- Thermal Zone

OS:Space,
  {1b51e4b9-5ff3-4a6d-a277-a8f2c7d55e04}, !- Handle
  garage space,                           !- Name
  {11bae613-c23b-436a-bcb4-4a49227eeb13}, !- Space Type Name
  ,                                       !- Default Construction Set Name
  ,                                       !- Default Schedule Set Name
  -0,                                     !- Direction of Relative North {deg}
  0,                                      !- X Origin {m}
  0,                                      !- Y Origin {m}
  0,                                      !- Z Origin {m}
  ,                                       !- Building Story Name
  {86734264-5029-4886-b961-955665ec4a61}; !- Thermal Zone Name

OS:Surface,
  {1417a02a-62b3-4983-a93c-22e5715514a7}, !- Handle
  Surface 1,                              !- Name
  Floor,                                  !- Surface Type
  ,                                       !- Construction Name
  {1b51e4b9-5ff3-4a6d-a277-a8f2c7d55e04}, !- Space Name
  Foundation,                             !- Outside Boundary Condition
  ,                                       !- Outside Boundary Condition Object
  NoSun,                                  !- Sun Exposure
  NoWind,                                 !- Wind Exposure
  ,                                       !- View Factor to Ground
  ,                                       !- Number of Vertices
  7.1330661888875, -3.048, 0,             !- X,Y,Z Vertex 1 {m}
  7.1330661888875, 3.048, 0,              !- X,Y,Z Vertex 2 {m}
  10.7906661888875, 3.048, 0,             !- X,Y,Z Vertex 3 {m}
  10.7906661888875, -3.048, 0;            !- X,Y,Z Vertex 4 {m}

OS:Surface,
  {d5c5a4d0-363f-4e8e-8fde-729d5fcba91b}, !- Handle
  Surface 2,                              !- Name
  Wall,                                   !- Surface Type
  ,                                       !- Construction Name
  {1b51e4b9-5ff3-4a6d-a277-a8f2c7d55e04}, !- Space Name
  Surface,                                !- Outside Boundary Condition
  {c15629c7-966d-4366-b1f4-61bb2af1c01a}, !- Outside Boundary Condition Object
  NoSun,                                  !- Sun Exposure
  NoWind,                                 !- Wind Exposure
  ,                                       !- View Factor to Ground
  ,                                       !- Number of Vertices
  7.1330661888875, 3.048, 2.4384,         !- X,Y,Z Vertex 1 {m}
  7.1330661888875, 3.048, 0,              !- X,Y,Z Vertex 2 {m}
  7.1330661888875, 0, 0,                  !- X,Y,Z Vertex 3 {m}
  7.1330661888875, 0, 2.4384;             !- X,Y,Z Vertex 4 {m}

OS:Surface,
  {c352f30c-cd5e-46bf-808f-b8c108a5d118}, !- Handle
  Surface 3,                              !- Name
  Wall,                                   !- Surface Type