!- NOTE: Auto-generated from /test/osw_files/SFD_HVACSizing_Load_2story_CS_GRG_FA_Skylights.osw

OS:Version,
  {ddf4d259-1ce5-4be0-b981-dd29f8408cf3}, !- Handle
  2.8.0;                                  !- Version Identifier

OS:SimulationControl,
  {9fe2d726-cde4-4a25-80f7-35eaf0c2e08a}, !- Handle
  ,                                       !- Do Zone Sizing Calculation
  ,                                       !- Do System Sizing Calculation
  ,                                       !- Do Plant Sizing Calculation
  No;                                     !- Run Simulation for Sizing Periods

OS:Timestep,
  {361a7d1a-ad5a-4f83-8fa2-b7a320ce2318}, !- Handle
  6;                                      !- Number of Timesteps per Hour

OS:ShadowCalculation,
  {22703975-0117-4d94-9295-3a32f83747e1}, !- Handle
  20,                                     !- Calculation Frequency
  200;                                    !- Maximum Figures in Shadow Overlap Calculations

OS:SurfaceConvectionAlgorithm:Outside,
  {a3cff937-f87e-4b1b-be73-0ddc4fe05073}, !- Handle
  DOE-2;                                  !- Algorithm

OS:SurfaceConvectionAlgorithm:Inside,
  {ad7d3f99-4c2e-45fd-852c-c486e697254e}, !- Handle
  TARP;                                   !- Algorithm

OS:ZoneCapacitanceMultiplier:ResearchSpecial,
  {1f68c364-7187-456a-b581-826991137a33}, !- Handle
  ,                                       !- Temperature Capacity Multiplier
  15,                                     !- Humidity Capacity Multiplier
  ;                                       !- Carbon Dioxide Capacity Multiplier

OS:RunPeriod,
  {c5b28e06-1977-4a00-b102-2d43221b0493}, !- Handle
  Run Period 1,                           !- Name
  1,                                      !- Begin Month
  1,                                      !- Begin Day of Month
  12,                                     !- End Month
  31,                                     !- End Day of Month
  ,                                       !- Use Weather File Holidays and Special Days
  ,                                       !- Use Weather File Daylight Saving Period
  ,                                       !- Apply Weekend Holiday Rule
  ,                                       !- Use Weather File Rain Indicators
  ,                                       !- Use Weather File Snow Indicators
  ;                                       !- Number of Times Runperiod to be Repeated

OS:WeatherFile,
  {712d92b7-d311-449f-95f5-c3ec9ed24e15}, !- Handle
  Denver Intl Ap,                         !- City
  CO,                                     !- State Province Region
  USA,                                    !- Country
  TMY3,                                   !- Data Source
  725650,                                 !- WMO Number
  39.83,                                  !- Latitude {deg}
  -104.65,                                !- Longitude {deg}
  -7,                                     !- Time Zone {hr}
  1650,                                   !- Elevation {m}
  file:../weather/USA_CO_Denver.Intl.AP.725650_TMY3.epw, !- Url
  E23378AA;                               !- Checksum

OS:AdditionalProperties,
  {c1298992-0894-4b80-a47d-41c19ce0ecfc}, !- Handle
  {712d92b7-d311-449f-95f5-c3ec9ed24e15}, !- Object Name
  EPWHeaderCity,                          !- Feature Name 1
  String,                                 !- Feature Data Type 1
  Denver Intl Ap,                         !- Feature Value 1
  EPWHeaderState,                         !- Feature Name 2
  String,                                 !- Feature Data Type 2
  CO,                                     !- Feature Value 2
  EPWHeaderCountry,                       !- Feature Name 3
  String,                                 !- Feature Data Type 3
  USA,                                    !- Feature Value 3
  EPWHeaderDataSource,                    !- Feature Name 4
  String,                                 !- Feature Data Type 4
  TMY3,                                   !- Feature Value 4
  EPWHeaderStation,                       !- Feature Name 5
  String,                                 !- Feature Data Type 5
  725650,                                 !- Feature Value 5
  EPWHeaderLatitude,                      !- Feature Name 6
  Double,                                 !- Feature Data Type 6
  39.829999999999998,                     !- Feature Value 6
  EPWHeaderLongitude,                     !- Feature Name 7
  Double,                                 !- Feature Data Type 7
  -104.65000000000001,                    !- Feature Value 7
  EPWHeaderTimezone,                      !- Feature Name 8
  Double,                                 !- Feature Data Type 8
  -7,                                     !- Feature Value 8
  EPWHeaderAltitude,                      !- Feature Name 9
  Double,                                 !- Feature Data Type 9
  5413.3858267716532,                     !- Feature Value 9
  EPWHeaderLocalPressure,                 !- Feature Name 10
  Double,                                 !- Feature Data Type 10
  0.81937567683596546,                    !- Feature Value 10
  EPWHeaderRecordsPerHour,                !- Feature Name 11
  Double,                                 !- Feature Data Type 11
  0,                                      !- Feature Value 11
  EPWDataAnnualAvgDrybulb,                !- Feature Name 12
  Double,                                 !- Feature Data Type 12
  51.575616438356228,                     !- Feature Value 12
  EPWDataAnnualMinDrybulb,                !- Feature Name 13
  Double,                                 !- Feature Data Type 13
  -2.9200000000000017,                    !- Feature Value 13
  EPWDataAnnualMaxDrybulb,                !- Feature Name 14
  Double,                                 !- Feature Data Type 14
  104,                                    !- Feature Value 14
  EPWDataCDD50F,                          !- Feature Name 15
  Double,                                 !- Feature Data Type 15
  3072.2925000000005,                     !- Feature Value 15
  EPWDataCDD65F,                          !- Feature Name 16
  Double,                                 !- Feature Data Type 16
  883.62000000000035,                     !- Feature Value 16
  EPWDataHDD50F,                          !- Feature Name 17
  Double,                                 !- Feature Data Type 17
  2497.1925000000001,                     !- Feature Value 17
  EPWDataHDD65F,                          !- Feature Name 18
  Double,                                 !- Feature Data Type 18
  5783.5200000000013,                     !- Feature Value 18
  EPWDataAnnualAvgWindspeed,              !- Feature Name 19
  Double,                                 !- Feature Data Type 19
  3.9165296803649667,                     !- Feature Value 19
  EPWDataMonthlyAvgDrybulbs,              !- Feature Name 20
  String,                                 !- Feature Data Type 20
  33.4191935483871&#4431.90142857142857&#4443.02620967741937&#4442.48624999999999&#4459.877741935483854&#4473.57574999999997&#4472.07975806451608&#4472.70008064516134&#4466.49200000000006&#4450.079112903225806&#4437.218250000000005&#4434.582177419354835, !- Feature Value 20
  EPWDataGroundMonthlyTemps,              !- Feature Name 21
  String,                                 !- Feature Data Type 21
  44.08306285945173&#4440.89570904991865&#4440.64045432632048&#4442.153016571250646&#4448.225111118704206&#4454.268919273837525&#4459.508577937551024&#4462.82777283423508&#4463.10975667174995&#4460.41014950381947&#4455.304105212311526&#4449.445696474514364, !- Feature Value 21
  EPWDataWSF,                             !- Feature Name 22
  Double,                                 !- Feature Data Type 22
  0.58999999999999997,                    !- Feature Value 22
  EPWDataMonthlyAvgDailyHighDrybulbs,     !- Feature Name 23
  String,                                 !- Feature Data Type 23
  47.41032258064516&#4446.58642857142857&#4455.15032258064517&#4453.708&#4472.80193548387098&#4488.67600000000002&#4486.1858064516129&#4485.87225806451613&#4482.082&#4463.18064516129033&#4448.73400000000001&#4448.87935483870968, !- Feature Value 23
  EPWDataMonthlyAvgDailyLowDrybulbs,      !- Feature Name 24
  String,                                 !- Feature Data Type 24
  19.347741935483874&#4419.856428571428573&#4430.316129032258065&#4431.112&#4447.41612903225806&#4457.901999999999994&#4459.063870967741934&#4460.956774193548384&#4452.352000000000004&#4438.41612903225806&#4427.002000000000002&#4423.02903225806451, !- Feature Value 24
  EPWDesignHeatingDrybulb,                !- Feature Name 25
  Double,                                 !- Feature Data Type 25
  12.02,                                  !- Feature Value 25
  EPWDesignHeatingWindspeed,              !- Feature Name 26
  Double,                                 !- Feature Data Type 26
  2.8062500000000004,                     !- Feature Value 26
  EPWDesignCoolingDrybulb,                !- Feature Name 27
  Double,                                 !- Feature Data Type 27
  91.939999999999998,                     !- Feature Value 27
  EPWDesignCoolingWetbulb,                !- Feature Name 28
  Double,                                 !- Feature Data Type 28
  59.95131430195849,                      !- Feature Value 28
  EPWDesignCoolingHumidityRatio,          !- Feature Name 29
  Double,                                 !- Feature Data Type 29
  0.0059161086834698092,                  !- Feature Value 29
  EPWDesignCoolingWindspeed,              !- Feature Name 30
  Double,                                 !- Feature Data Type 30
  3.7999999999999989,                     !- Feature Value 30
  EPWDesignDailyTemperatureRange,         !- Feature Name 31
  Double,                                 !- Feature Data Type 31
  24.915483870967748,                     !- Feature Value 31
  EPWDesignDehumidDrybulb,                !- Feature Name 32
  Double,                                 !- Feature Data Type 32
  67.996785714285721,                     !- Feature Value 32
  EPWDesignDehumidHumidityRatio,          !- Feature Name 33
  Double,                                 !- Feature Data Type 33
  0.012133744170488724,                   !- Feature Value 33
  EPWDesignCoolingDirectNormal,           !- Feature Name 34
  Double,                                 !- Feature Data Type 34
  985,                                    !- Feature Value 34
  EPWDesignCoolingDiffuseHorizontal,      !- Feature Name 35
  Double,                                 !- Feature Data Type 35
  84;                                     !- Feature Value 35

OS:YearDescription,
  {0bcc83a5-c055-46d6-9c07-c4607b1e8216}, !- Handle
  ,                                       !- Calendar Year
  Monday;                                 !- Day of Week for Start Day

OS:Site,
  {93b54767-fd47-4c5e-857d-48642622358c}, !- Handle
  Denver Intl Ap_CO_USA,                  !- Name
  39.83,                                  !- Latitude {deg}
  -104.65,                                !- Longitude {deg}
  -7,                                     !- Time Zone {hr}
  1650,                                   !- Elevation {m}
  Suburbs;                                !- Terrain

OS:ClimateZones,
  {43db2bb5-1320-4851-addd-507bbb30352f}, !- Handle
  ,                                       !- Active Institution
  ,                                       !- Active Year
  ,                                       !- Climate Zone Institution Name 1
  ,                                       !- Climate Zone Document Name 1
  ,                                       !- Climate Zone Document Year 1
  ,                                       !- Climate Zone Value 1
  Building America,                       !- Climate Zone Institution Name 2
  ,                                       !- Climate Zone Document Name 2
  0,                                      !- Climate Zone Document Year 2
  Cold;                                   !- Climate Zone Value 2

OS:Site:WaterMainsTemperature,
  {db6bcbf8-d266-41c0-ab31-e1c24e44757e}, !- Handle
  Correlation,                            !- Calculation Method
  ,                                       !- Temperature Schedule Name
  10.8753424657535,                       !- Annual Average Outdoor Air Temperature {C}
  23.1524007936508;                       !- Maximum Difference In Monthly Average Outdoor Air Temperatures {deltaC}

OS:RunPeriodControl:DaylightSavingTime,
  {30a56dce-f601-4d09-a4fb-94bd27e6fcd6}, !- Handle
  4/7,                                    !- Start Date
  10/26;                                  !- End Date

OS:Site:GroundTemperature:Deep,
  {7763fd49-50e9-4f21-8e3b-796147e962b7}, !- Handle
  10.8753424657535,                       !- January Deep Ground Temperature {C}
  10.8753424657535,                       !- February Deep Ground Temperature {C}
  10.8753424657535,                       !- March Deep Ground Temperature {C}
  10.8753424657535,                       !- April Deep Ground Temperature {C}
  10.8753424657535,                       !- May Deep Ground Temperature {C}
  10.8753424657535,                       !- June Deep Ground Temperature {C}
  10.8753424657535,                       !- July Deep Ground Temperature {C}
  10.8753424657535,                       !- August Deep Ground Temperature {C}
  10.8753424657535,                       !- September Deep Ground Temperature {C}
  10.8753424657535,                       !- October Deep Ground Temperature {C}
  10.8753424657535,                       !- November Deep Ground Temperature {C}
  10.8753424657535;                       !- December Deep Ground Temperature {C}

OS:ThermalZone,
  {ac540c7a-cd88-4260-90d9-e68617305214}, !- Handle
  living zone,                            !- Name
  ,                                       !- Multiplier
  ,                                       !- Ceiling Height {m}
  ,                                       !- Volume {m3}
  ,                                       !- Floor Area {m2}
  ,                                       !- Zone Inside Convection Algorithm
  ,                                       !- Zone Outside Convection Algorithm
  ,                                       !- Zone Conditioning Equipment List Name
  {fe8ff698-47ad-44ec-93f7-8742c7988a83}, !- Zone Air Inlet Port List
  {19e159f5-e05a-4242-b8db-c03ca4fa2dd7}, !- Zone Air Exhaust Port List
  {23d29e8b-fea1-4743-9c10-1e3f620299ca}, !- Zone Air Node Name
  {7e132eeb-8f05-41a2-8666-a04d178c027d}, !- Zone Return Air Port List
  ,                                       !- Primary Daylighting Control Name
  ,                                       !- Fraction of Zone Controlled by Primary Daylighting Control
  ,                                       !- Secondary Daylighting Control Name
  ,                                       !- Fraction of Zone Controlled by Secondary Daylighting Control
  ,                                       !- Illuminance Map Name
  ,                                       !- Group Rendering Name
  ,                                       !- Thermostat Name
  No;                                     !- Use Ideal Air Loads

OS:Node,
  {874120cb-5534-42df-a0b3-069f5cec0b26}, !- Handle
  Node 1,                                 !- Name
  {23d29e8b-fea1-4743-9c10-1e3f620299ca}, !- Inlet Port
  ;                                       !- Outlet Port

OS:Connection,
  {23d29e8b-fea1-4743-9c10-1e3f620299ca}, !- Handle
  {0dae18b6-7939-4c64-af3a-30c479f59687}, !- Name
  {ac540c7a-cd88-4260-90d9-e68617305214}, !- Source Object
  11,                                     !- Outlet Port
  {874120cb-5534-42df-a0b3-069f5cec0b26}, !- Target Object
  2;                                      !- Inlet Port

OS:PortList,
  {fe8ff698-47ad-44ec-93f7-8742c7988a83}, !- Handle
  {176a1209-efae-4343-92f5-03efcdeca4b9}, !- Name
  {ac540c7a-cd88-4260-90d9-e68617305214}; !- HVAC Component

OS:PortList,
  {19e159f5-e05a-4242-b8db-c03ca4fa2dd7}, !- Handle
  {6096ccf9-818f-441b-9599-e65513c26397}, !- Name
  {ac540c7a-cd88-4260-90d9-e68617305214}; !- HVAC Component

OS:PortList,
  {7e132eeb-8f05-41a2-8666-a04d178c027d}, !- Handle
  {d57bcead-37e3-4092-9722-2ffcdb208b89}, !- Name
  {ac540c7a-cd88-4260-90d9-e68617305214}; !- HVAC Component

OS:Sizing:Zone,
  {b74a668c-c4de-4d3f-9999-3d40941f4e8d}, !- Handle
  {ac540c7a-cd88-4260-90d9-e68617305214}, !- Zone or ZoneList Name
  SupplyAirTemperature,                   !- Zone Cooling Design Supply Air Temperature Input Method
  14,                                     !- Zone Cooling Design Supply Air Temperature {C}
  11.11,                                  !- Zone Cooling Design Supply Air Temperature Difference {deltaC}
  SupplyAirTemperature,                   !- Zone Heating Design Supply Air Temperature Input Method
  40,                                     !- Zone Heating Design Supply Air Temperature {C}
  11.11,                                  !- Zone Heating Design Supply Air Temperature Difference {deltaC}
  0.0085,                                 !- Zone Cooling Design Supply Air Humidity Ratio {kg-H2O/kg-air}
  0.008,                                  !- Zone Heating Design Supply Air Humidity Ratio {kg-H2O/kg-air}
  ,                                       !- Zone Heating Sizing Factor
  ,                                       !- Zone Cooling Sizing Factor
  DesignDay,                              !- Cooling Design Air Flow Method
  ,                                       !- Cooling Design Air Flow Rate {m3/s}
  ,                                       !- Cooling Minimum Air Flow per Zone Floor Area {m3/s-m2}
  ,                                       !- Cooling Minimum Air Flow {m3/s}
  ,                                       !- Cooling Minimum Air Flow Fraction
  DesignDay,                              !- Heating Design Air Flow Method
  ,                                       !- Heating Design Air Flow Rate {m3/s}
  ,                                       !- Heating Maximum Air Flow per Zone Floor Area {m3/s-m2}
  ,                                       !- Heating Maximum Air Flow {m3/s}
  ,                                       !- Heating Maximum Air Flow Fraction
  ,                                       !- Design Zone Air Distribution Effectiveness in Cooling Mode
  ,                                       !- Design Zone Air Distribution Effectiveness in Heating Mode
  No,                                     !- Account for Dedicated Outdoor Air System
  NeutralSupplyAir,                       !- Dedicated Outdoor Air System Control Strategy
  autosize,                               !- Dedicated Outdoor Air Low Setpoint Temperature for Design {C}
  autosize;                               !- Dedicated Outdoor Air High Setpoint Temperature for Design {C}

OS:ZoneHVAC:EquipmentList,
  {e3aa8cfa-baac-48ab-bd37-574ee16364aa}, !- Handle
  Zone HVAC Equipment List 1,             !- Name
  {ac540c7a-cd88-4260-90d9-e68617305214}; !- Thermal Zone

OS:ThermalZone,
  {599ffeec-b9b4-4988-a693-f9b3e6516645}, !- Handle
  garage zone,                            !- Name
  ,                                       !- Multiplier
  ,                                       !- Ceiling Height {m}
  ,                                       !- Volume {m3}
  ,                                       !- Floor Area {m2}
  ,                                       !- Zone Inside Convection Algorithm
  ,                                       !- Zone Outside Convection Algorithm
  ,                                       !- Zone Conditioning Equipment List Name
  {98284869-bea1-4217-8ec8-451b0be12e21}, !- Zone Air Inlet Port List
  {c3b5777c-3131-4a69-b6ea-53a7f6121a7e}, !- Zone Air Exhaust Port List
  {6f909321-662d-4e9c-a564-801d5232e939}, !- Zone Air Node Name
  {d03a359c-7a31-4627-b4fb-8df7ee09dc60}, !- Zone Return Air Port List
  ,                                       !- Primary Daylighting Control Name
  ,                                       !- Fraction of Zone Controlled by Primary Daylighting Control
  ,                                       !- Secondary Daylighting Control Name
  ,                                       !- Fraction of Zone Controlled by Secondary Daylighting Control
  ,                                       !- Illuminance Map Name
  ,                                       !- Group Rendering Name
  ,                                       !- Thermostat Name
  No;                                     !- Use Ideal Air Loads

OS:Node,
  {420bf8d4-a6b7-4139-b6d8-8233c7ce6b73}, !- Handle
  Node 2,                                 !- Name
  {6f909321-662d-4e9c-a564-801d5232e939}, !- Inlet Port
  ;                                       !- Outlet Port

OS:Connection,
  {6f909321-662d-4e9c-a564-801d5232e939}, !- Handle
  {51ccf742-1ec4-4ae6-a944-e1fdfda54479}, !- Name
  {599ffeec-b9b4-4988-a693-f9b3e6516645}, !- Source Object
  11,                                     !- Outlet Port
  {420bf8d4-a6b7-4139-b6d8-8233c7ce6b73}, !- Target Object
  2;                                      !- Inlet Port

OS:PortList,
  {98284869-bea1-4217-8ec8-451b0be12e21}, !- Handle
  {5d87f5db-f9cb-43ba-8112-0e2df77e3caf}, !- Name
  {599ffeec-b9b4-4988-a693-f9b3e6516645}; !- HVAC Component

OS:PortList,
  {c3b5777c-3131-4a69-b6ea-53a7f6121a7e}, !- Handle
  {f4ceca54-7694-49d4-8795-17ea8fa10b06}, !- Name
  {599ffeec-b9b4-4988-a693-f9b3e6516645}; !- HVAC Component

OS:PortList,
  {d03a359c-7a31-4627-b4fb-8df7ee09dc60}, !- Handle
  {7ba37271-1178-4388-8afa-a56e0fb79f72}, !- Name
  {599ffeec-b9b4-4988-a693-f9b3e6516645}; !- HVAC Component

OS:Sizing:Zone,
  {52a7fab9-5cfe-41db-96fa-48511a702d1a}, !- Handle
  {599ffeec-b9b4-4988-a693-f9b3e6516645}, !- Zone or ZoneList Name
  SupplyAirTemperature,                   !- Zone Cooling Design Supply Air Temperature Input Method
  14,                                     !- Zone Cooling Design Supply Air Temperature {C}
  11.11,                                  !- Zone Cooling Design Supply Air Temperature Difference {deltaC}
  SupplyAirTemperature,                   !- Zone Heating Design Supply Air Temperature Input Method
  40,                                     !- Zone Heating Design Supply Air Temperature {C}
  11.11,                                  !- Zone Heating Design Supply Air Temperature Difference {deltaC}
  0.0085,                                 !- Zone Cooling Design Supply Air Humidity Ratio {kg-H2O/kg-air}
  0.008,                                  !- Zone Heating Design Supply Air Humidity Ratio {kg-H2O/kg-air}
  ,                                       !- Zone Heating Sizing Factor
  ,                                       !- Zone Cooling Sizing Factor
  DesignDay,                              !- Cooling Design Air Flow Method
  ,                                       !- Cooling Design Air Flow Rate {m3/s}
  ,                                       !- Cooling Minimum Air Flow per Zone Floor Area {m3/s-m2}
  ,                                       !- Cooling Minimum Air Flow {m3/s}
  ,                                       !- Cooling Minimum Air Flow Fraction
  DesignDay,                              !- Heating Design Air Flow Method
  ,                                       !- Heating Design Air Flow Rate {m3/s}
  ,                                       !- Heating Maximum Air Flow per Zone Floor Area {m3/s-m2}
  ,                                       !- Heating Maximum Air Flow {m3/s}
  ,                                       !- Heating Maximum Air Flow Fraction
  ,                                       !- Design Zone Air Distribution Effectiveness in Cooling Mode
  ,                                       !- Design Zone Air Distribution Effectiveness in Heating Mode
  No,                                     !- Account for Dedicated Outdoor Air System
  NeutralSupplyAir,                       !- Dedicated Outdoor Air System Control Strategy
  autosize,                               !- Dedicated Outdoor Air Low Setpoint Temperature for Design {C}
  autosize;                               !- Dedicated Outdoor Air High Setpoint Temperature for Design {C}

OS:ZoneHVAC:EquipmentList,
  {57ed33b5-3ca8-4673-a980-f503e403e4d9}, !- Handle
  Zone HVAC Equipment List 2,             !- Name
  {599ffeec-b9b4-4988-a693-f9b3e6516645}; !- Thermal Zone

OS:Space,
  {191b4e83-3632-4592-91c4-62a311bb42ff}, !- Handle
  garage space,                           !- Name
  {1b9b35a8-01ce-411e-9122-5536c1347408}, !- Space Type Name
  ,                                       !- Default Construction Set Name
  ,                                       !- Default Schedule Set Name
  -0,                                     !- Direction of Relative North {deg}
  0,                                      !- X Origin {m}
  0,                                      !- Y Origin {m}
  0,                                      !- Z Origin {m}
  ,                                       !- Building Story Name
  {599ffeec-b9b4-4988-a693-f9b3e6516645}; !- Thermal Zone Name

OS:Surface,
  {9b31bc19-9d3a-49be-b5ce-708b833f2798}, !- Handle
  Surface 1,                              !- Name
  Floor,                                  !- Surface Type
  {43036458-ca2d-4adf-8998-b3322a1799fd}, !- Construction Name
  {191b4e83-3632-4592-91c4-62a311bb42ff}, !- Space Name
  Foundation,                             !- Outside Boundary Condition
  {d0a6e292-2f9b-4da0-a9c3-df52a0add69e}, !- Outside Boundary Condition Object
  NoSun,                                  !- Sun Exposure
  NoWind,                                 !- Wind Exposure
  ,                                       !- View Factor to Ground
  ,                                       !- Number of Vertices
  7.6199999993904, -3.048, 0,             !- X,Y,Z Vertex 1 {m}
  7.6199999993904, 3.048, 0,              !- X,Y,Z Vertex 2 {m}
  11.2775999993904, 3.048, 0,             !- X,Y,Z Vertex 3 {m}
  11.2775999993904, -3.048, 0;            !- X,Y,Z Vertex 4 {m}

OS:Surface,
  {6b104238-e6b3-422d-93bf-170cde9d07ab}, !- Handle
  Surface 2,                              !- Name
  Wall,                                   !- Surface Type
  {97200651-9062-4fbc-8805-1900c0726cd7}, !- Construction Name
  {191b4e83-3632-4592-91c4-62a311bb42ff}, !- Space Name
  Surface,                                !- Outside Boundary Condition
  {b19bff68-93c0-4683-8e34-c765b51521e8}, !- Outside Boundary Condition Object
  NoSun,                                  !- Sun Exposure
  NoWind,                                 !- Wind Exposure
  ,                                       !- View Factor to Ground
  ,                                       !- Number of Vertices
  7.6199999993904, 3.048, 2.4384,         !- X,Y,Z Vertex 1 {m}
  7.6199999993904, 3.048, 0,              !- X,Y,Z Vertex 2 {m}
  7.6199999993904, 0, 0,                  !- X,Y,Z Vertex 3 {m}
  7.6199999993904, 0, 2.4384;             !- X,Y,Z Vertex 4 {m}

OS:Surface,
  {0c7283cc-6516-4ff8-94a3-e9d209c67b3c}, !- Handle
  Surface 3,                              !- Name
  Wall,                                   !- Surface Type
  {97200651-9062-4fbc-8805-1900c0726cd7}, !- Construction Name
  {191b4e83-3632-4592-91c4-62a311bb42ff}, !- Space Name
  Surface,                                !- Outside Boundary Condition
  {2d0e09bb-ca94-412d-9eab-e34f2c533502}, !- Outside Boundary Condition Object
  NoSun,                                  !- Sun Exposure
  NoWind,                                 !- Wind Exposure
  ,                                       !- View Factor to Ground
  ,                                       !- Number of Vertices
  11.2775999993904, 3.048, 2.4384,        !- X,Y,Z Vertex 1 {m}
  11.2775999993904, 3.048, 0,             !- X,Y,Z Vertex 2 {m}
  7.6199999993904, 3.048, 0,              !- X,Y,Z Vertex 3 {m}
  7.6199999993904, 3.048, 2.4384;         !- X,Y,Z Vertex 4 {m}

OS:Surface,
  {477cb0d1-fb85-4a1d-9c40-67259118108c}, !- Handle
  Surface 4,                              !- Name
  Wall,                                   !- Surface Type
  {2b3392dc-8345-4748-aed8-7136e754aeeb}, !- Construction Name
  {191b4e83-3632-4592-91c4-62a311bb42ff}, !- Space Name
  Outdoors,                               !- Outside Boundary Condition
  ,                                       !- Outside Boundary Condition Object
  SunExposed,                             !- Sun Exposure
  WindExposed,                            !- Wind Exposure
  ,                                       !- View Factor to Ground
  ,                                       !- Number of Vertices
  11.2775999993904, -3.048, 2.4384,       !- X,Y,Z Vertex 1 {m}
  11.2775999993904, -3.048, 0,            !- X,Y,Z Vertex 2 {m}
  11.2775999993904, 3.048, 0,             !- X,Y,Z Vertex 3 {m}
  11.2775999993904, 3.048, 2.4384;        !- X,Y,Z Vertex 4 {m}

OS:Surface,
  {16ba2419-8450-4b5f-94fc-9806d23b937d}, !- Handle
  Surface 5,                              !- Name
  Wall,                                   !- Surface Type
  {2b3392dc-8345-4748-aed8-7136e754aeeb}, !- Construction Name
  {191b4e83-3632-4592-91c4-62a311bb42ff}, !- Space Name
  Outdoors,                               !- Outside Boundary Condition
  ,                                       !- Outside Boundary Condition Object
  SunExposed,                             !- Sun Exposure
  WindExposed,                            !- Wind Exposure
  ,                                       !- View Factor to Ground
  ,                                       !- Number of Vertices
  7.6199999993904, -3.048, 2.4384,        !- X,Y,Z Vertex 1 {m}
  7.6199999993904, -3.048, 0,             !- X,Y,Z Vertex 2 {m}
  11.2775999993904, -3.048, 0,            !- X,Y,Z Vertex 3 {m}
  11.2775999993904, -3.048, 2.4384;       !- X,Y,Z Vertex 4 {m}

OS:Surface,
  {686f2aa6-117e-453c-80f2-692cd472693e}, !- Handle
  Surface 6,                              !- Name
  RoofCeiling,                            !- Surface Type