!- NOTE: Auto-generated from /test/osw_files/SFD_HVACSizing_Load_2story_UB_GRG_FA.osw

OS:Version,
  {8d4aae07-65ff-4c98-bf30-e66a710295b4}, !- Handle
  2.9.1;                                  !- Version Identifier

OS:SimulationControl,
  {066d12c8-2f3a-4af4-a29a-b2badefe1472}, !- Handle
  ,                                       !- Do Zone Sizing Calculation
  ,                                       !- Do System Sizing Calculation
  ,                                       !- Do Plant Sizing Calculation
  No;                                     !- Run Simulation for Sizing Periods

OS:Timestep,
  {7db71ac9-8eae-4feb-a6b7-d87a5534f257}, !- Handle
  6;                                      !- Number of Timesteps per Hour

OS:ShadowCalculation,
  {e1cdab64-aff9-4c1e-900c-b7cbac929870}, !- Handle
  20,                                     !- Calculation Frequency
  200;                                    !- Maximum Figures in Shadow Overlap Calculations

OS:SurfaceConvectionAlgorithm:Outside,
  {b33264c5-4edc-476a-a1b4-5c80e6a689ca}, !- Handle
  DOE-2;                                  !- Algorithm

OS:SurfaceConvectionAlgorithm:Inside,
  {7ceb11e3-a99d-429a-a180-f64af9da6b22}, !- Handle
  TARP;                                   !- Algorithm

OS:ZoneCapacitanceMultiplier:ResearchSpecial,
  {201c6cd5-17fb-4d23-a66e-f8af113b58ea}, !- Handle
  ,                                       !- Temperature Capacity Multiplier
  15,                                     !- Humidity Capacity Multiplier
  ;                                       !- Carbon Dioxide Capacity Multiplier

OS:RunPeriod,
  {46dcefe2-7c0b-4160-a5f2-6bbcb9f9d71f}, !- Handle
  Run Period 1,                           !- Name
  1,                                      !- Begin Month
  1,                                      !- Begin Day of Month
  12,                                     !- End Month
  31,                                     !- End Day of Month
  ,                                       !- Use Weather File Holidays and Special Days
  ,                                       !- Use Weather File Daylight Saving Period
  ,                                       !- Apply Weekend Holiday Rule
  ,                                       !- Use Weather File Rain Indicators
  ,                                       !- Use Weather File Snow Indicators
  ;                                       !- Number of Times Runperiod to be Repeated

OS:YearDescription,
  {bdf543c2-152c-4499-9fbe-04874cea0603}, !- Handle
  2007,                                   !- Calendar Year
  ,                                       !- Day of Week for Start Day
  ;                                       !- Is Leap Year

OS:WeatherFile,
  {ee484488-1b81-4511-985f-6ad1b93b47c7}, !- Handle
  Denver Intl Ap,                         !- City
  CO,                                     !- State Province Region
  USA,                                    !- Country
  TMY3,                                   !- Data Source
  725650,                                 !- WMO Number
  39.83,                                  !- Latitude {deg}
  -104.65,                                !- Longitude {deg}
  -7,                                     !- Time Zone {hr}
  1650,                                   !- Elevation {m}
  file:../weather/USA_CO_Denver.Intl.AP.725650_TMY3.epw, !- Url
  E23378AA;                               !- Checksum

OS:AdditionalProperties,
  {c26ef734-1fe4-4c1e-8966-22d2a13d8e65}, !- Handle
  {ee484488-1b81-4511-985f-6ad1b93b47c7}, !- Object Name
  EPWHeaderCity,                          !- Feature Name 1
  String,                                 !- Feature Data Type 1
  Denver Intl Ap,                         !- Feature Value 1
  EPWHeaderState,                         !- Feature Name 2
  String,                                 !- Feature Data Type 2
  CO,                                     !- Feature Value 2
  EPWHeaderCountry,                       !- Feature Name 3
  String,                                 !- Feature Data Type 3
  USA,                                    !- Feature Value 3
  EPWHeaderDataSource,                    !- Feature Name 4
  String,                                 !- Feature Data Type 4
  TMY3,                                   !- Feature Value 4
  EPWHeaderStation,                       !- Feature Name 5
  String,                                 !- Feature Data Type 5
  725650,                                 !- Feature Value 5
  EPWHeaderLatitude,                      !- Feature Name 6
  Double,                                 !- Feature Data Type 6
  39.829999999999998,                     !- Feature Value 6
  EPWHeaderLongitude,                     !- Feature Name 7
  Double,                                 !- Feature Data Type 7
  -104.65000000000001,                    !- Feature Value 7
  EPWHeaderTimezone,                      !- Feature Name 8
  Double,                                 !- Feature Data Type 8
  -7,                                     !- Feature Value 8
  EPWHeaderAltitude,                      !- Feature Name 9
  Double,                                 !- Feature Data Type 9
  5413.3858267716532,                     !- Feature Value 9
  EPWHeaderLocalPressure,                 !- Feature Name 10
  Double,                                 !- Feature Data Type 10
  0.81937567683596546,                    !- Feature Value 10
  EPWHeaderRecordsPerHour,                !- Feature Name 11
  Double,                                 !- Feature Data Type 11
  0,                                      !- Feature Value 11
  EPWDataAnnualAvgDrybulb,                !- Feature Name 12
  Double,                                 !- Feature Data Type 12
  51.575616438356228,                     !- Feature Value 12
  EPWDataAnnualMinDrybulb,                !- Feature Name 13
  Double,                                 !- Feature Data Type 13
  -2.9200000000000017,                    !- Feature Value 13
  EPWDataAnnualMaxDrybulb,                !- Feature Name 14
  Double,                                 !- Feature Data Type 14
  104,                                    !- Feature Value 14
  EPWDataCDD50F,                          !- Feature Name 15
  Double,                                 !- Feature Data Type 15
  3072.2925000000005,                     !- Feature Value 15
  EPWDataCDD65F,                          !- Feature Name 16
  Double,                                 !- Feature Data Type 16
  883.62000000000035,                     !- Feature Value 16
  EPWDataHDD50F,                          !- Feature Name 17
  Double,                                 !- Feature Data Type 17
  2497.1925000000001,                     !- Feature Value 17
  EPWDataHDD65F,                          !- Feature Name 18
  Double,                                 !- Feature Data Type 18
  5783.5200000000013,                     !- Feature Value 18
  EPWDataAnnualAvgWindspeed,              !- Feature Name 19
  Double,                                 !- Feature Data Type 19
  3.9165296803649667,                     !- Feature Value 19
  EPWDataMonthlyAvgDrybulbs,              !- Feature Name 20
  String,                                 !- Feature Data Type 20
  33.4191935483871&#4431.90142857142857&#4443.02620967741937&#4442.48624999999999&#4459.877741935483854&#4473.57574999999997&#4472.07975806451608&#4472.70008064516134&#4466.49200000000006&#4450.079112903225806&#4437.218250000000005&#4434.582177419354835, !- Feature Value 20
  EPWDataGroundMonthlyTemps,              !- Feature Name 21
  String,                                 !- Feature Data Type 21
  44.08306285945173&#4440.89570904991865&#4440.64045432632048&#4442.153016571250646&#4448.225111118704206&#4454.268919273837525&#4459.508577937551024&#4462.82777283423508&#4463.10975667174995&#4460.41014950381947&#4455.304105212311526&#4449.445696474514364, !- Feature Value 21
  EPWDataWSF,                             !- Feature Name 22
  Double,                                 !- Feature Data Type 22
  0.58999999999999997,                    !- Feature Value 22
  EPWDataMonthlyAvgDailyHighDrybulbs,     !- Feature Name 23
  String,                                 !- Feature Data Type 23
  47.41032258064516&#4446.58642857142857&#4455.15032258064517&#4453.708&#4472.80193548387098&#4488.67600000000002&#4486.1858064516129&#4485.87225806451613&#4482.082&#4463.18064516129033&#4448.73400000000001&#4448.87935483870968, !- Feature Value 23
  EPWDataMonthlyAvgDailyLowDrybulbs,      !- Feature Name 24
  String,                                 !- Feature Data Type 24
  19.347741935483874&#4419.856428571428573&#4430.316129032258065&#4431.112&#4447.41612903225806&#4457.901999999999994&#4459.063870967741934&#4460.956774193548384&#4452.352000000000004&#4438.41612903225806&#4427.002000000000002&#4423.02903225806451, !- Feature Value 24
  EPWDesignHeatingDrybulb,                !- Feature Name 25
  Double,                                 !- Feature Data Type 25
  12.02,                                  !- Feature Value 25
  EPWDesignHeatingWindspeed,              !- Feature Name 26
  Double,                                 !- Feature Data Type 26
  2.8062500000000004,                     !- Feature Value 26
  EPWDesignCoolingDrybulb,                !- Feature Name 27
  Double,                                 !- Feature Data Type 27
  91.939999999999998,                     !- Feature Value 27
  EPWDesignCoolingWetbulb,                !- Feature Name 28
  Double,                                 !- Feature Data Type 28
  59.95131430195849,                      !- Feature Value 28
  EPWDesignCoolingHumidityRatio,          !- Feature Name 29
  Double,                                 !- Feature Data Type 29
  0.0059161086834698092,                  !- Feature Value 29
  EPWDesignCoolingWindspeed,              !- Feature Name 30
  Double,                                 !- Feature Data Type 30
  3.7999999999999989,                     !- Feature Value 30
  EPWDesignDailyTemperatureRange,         !- Feature Name 31
  Double,                                 !- Feature Data Type 31
  24.915483870967748,                     !- Feature Value 31
  EPWDesignDehumidDrybulb,                !- Feature Name 32
  Double,                                 !- Feature Data Type 32
  67.996785714285721,                     !- Feature Value 32
  EPWDesignDehumidHumidityRatio,          !- Feature Name 33
  Double,                                 !- Feature Data Type 33
  0.012133744170488724,                   !- Feature Value 33
  EPWDesignCoolingDirectNormal,           !- Feature Name 34
  Double,                                 !- Feature Data Type 34
  985,                                    !- Feature Value 34
  EPWDesignCoolingDiffuseHorizontal,      !- Feature Name 35
  Double,                                 !- Feature Data Type 35
  84;                                     !- Feature Value 35

OS:Site,
  {045bdb17-eade-4214-986f-7cb329bd8e8a}, !- Handle
  Denver Intl Ap_CO_USA,                  !- Name
  39.83,                                  !- Latitude {deg}
  -104.65,                                !- Longitude {deg}
  -7,                                     !- Time Zone {hr}
  1650,                                   !- Elevation {m}
  ;                                       !- Terrain

OS:ClimateZones,
  {e8f5db57-4ce0-4d45-9623-733862fd4545}, !- Handle
  ,                                       !- Active Institution
  ,                                       !- Active Year
  ,                                       !- Climate Zone Institution Name 1
  ,                                       !- Climate Zone Document Name 1
  ,                                       !- Climate Zone Document Year 1
  ,                                       !- Climate Zone Value 1
  Building America,                       !- Climate Zone Institution Name 2
  ,                                       !- Climate Zone Document Name 2
  0,                                      !- Climate Zone Document Year 2
  Cold;                                   !- Climate Zone Value 2

OS:Site:WaterMainsTemperature,
  {f3c70af6-6955-4597-9279-8cb01e04f20c}, !- Handle
  Correlation,                            !- Calculation Method
  ,                                       !- Temperature Schedule Name
  10.8753424657535,                       !- Annual Average Outdoor Air Temperature {C}
  23.1524007936508;                       !- Maximum Difference In Monthly Average Outdoor Air Temperatures {deltaC}

OS:RunPeriodControl:DaylightSavingTime,
  {2a95b720-aba3-487d-bec8-eb14e8dfb578}, !- Handle
  4/7,                                    !- Start Date
  10/26;                                  !- End Date

OS:Site:GroundTemperature:Deep,
  {10b10b72-0631-49d2-9571-15367f45b375}, !- Handle
  10.8753424657535,                       !- January Deep Ground Temperature {C}
  10.8753424657535,                       !- February Deep Ground Temperature {C}
  10.8753424657535,                       !- March Deep Ground Temperature {C}
  10.8753424657535,                       !- April Deep Ground Temperature {C}
  10.8753424657535,                       !- May Deep Ground Temperature {C}
  10.8753424657535,                       !- June Deep Ground Temperature {C}
  10.8753424657535,                       !- July Deep Ground Temperature {C}
  10.8753424657535,                       !- August Deep Ground Temperature {C}
  10.8753424657535,                       !- September Deep Ground Temperature {C}
  10.8753424657535,                       !- October Deep Ground Temperature {C}
  10.8753424657535,                       !- November Deep Ground Temperature {C}
  10.8753424657535;                       !- December Deep Ground Temperature {C}

OS:ThermalZone,
  {bb856341-68c9-495e-b93b-5c46441d175a}, !- Handle
  living zone,                            !- Name
  ,                                       !- Multiplier
  ,                                       !- Ceiling Height {m}
  ,                                       !- Volume {m3}
  ,                                       !- Floor Area {m2}
  ,                                       !- Zone Inside Convection Algorithm
  ,                                       !- Zone Outside Convection Algorithm
  ,                                       !- Zone Conditioning Equipment List Name
  {06e1ed3d-cfe4-46d3-9d98-4375eef8845d}, !- Zone Air Inlet Port List
  {f96a8259-7c5f-441f-9c9a-e1164bb60222}, !- Zone Air Exhaust Port List
  {6f19a90a-d567-46bd-a68b-e50fe9a97a04}, !- Zone Air Node Name
  {0a311127-6429-4d9f-8d41-137ed994fca5}, !- Zone Return Air Port List
  ,                                       !- Primary Daylighting Control Name
  ,                                       !- Fraction of Zone Controlled by Primary Daylighting Control
  ,                                       !- Secondary Daylighting Control Name
  ,                                       !- Fraction of Zone Controlled by Secondary Daylighting Control
  ,                                       !- Illuminance Map Name
  ,                                       !- Group Rendering Name
  ,                                       !- Thermostat Name
  No;                                     !- Use Ideal Air Loads

OS:Node,
  {f7e5a10c-5cfb-47be-9da3-b418de4c1c9b}, !- Handle
  Node 1,                                 !- Name
  {6f19a90a-d567-46bd-a68b-e50fe9a97a04}, !- Inlet Port
  ;                                       !- Outlet Port

OS:Connection,
  {6f19a90a-d567-46bd-a68b-e50fe9a97a04}, !- Handle
  {3f4f8ae1-8a7e-4611-9632-f15f223278fa}, !- Name
  {bb856341-68c9-495e-b93b-5c46441d175a}, !- Source Object
  11,                                     !- Outlet Port
  {f7e5a10c-5cfb-47be-9da3-b418de4c1c9b}, !- Target Object
  2;                                      !- Inlet Port

OS:PortList,
  {06e1ed3d-cfe4-46d3-9d98-4375eef8845d}, !- Handle
  {d400a588-23f4-46f6-bf4a-42eeb5b6bd36}, !- Name
  {bb856341-68c9-495e-b93b-5c46441d175a}; !- HVAC Component

OS:PortList,
  {f96a8259-7c5f-441f-9c9a-e1164bb60222}, !- Handle
  {73752803-f23e-44af-a692-4dc32d0459da}, !- Name
  {bb856341-68c9-495e-b93b-5c46441d175a}; !- HVAC Component

OS:PortList,
  {0a311127-6429-4d9f-8d41-137ed994fca5}, !- Handle
  {8074f3fd-a73e-4b01-b496-17ee412d3ac0}, !- Name
  {bb856341-68c9-495e-b93b-5c46441d175a}; !- HVAC Component

OS:Sizing:Zone,
  {01d65cb3-4950-4505-941f-0572c418aebb}, !- Handle
  {bb856341-68c9-495e-b93b-5c46441d175a}, !- Zone or ZoneList Name
  SupplyAirTemperature,                   !- Zone Cooling Design Supply Air Temperature Input Method
  14,                                     !- Zone Cooling Design Supply Air Temperature {C}
  11.11,                                  !- Zone Cooling Design Supply Air Temperature Difference {deltaC}
  SupplyAirTemperature,                   !- Zone Heating Design Supply Air Temperature Input Method
  40,                                     !- Zone Heating Design Supply Air Temperature {C}
  11.11,                                  !- Zone Heating Design Supply Air Temperature Difference {deltaC}
  0.0085,                                 !- Zone Cooling Design Supply Air Humidity Ratio {kg-H2O/kg-air}
  0.008,                                  !- Zone Heating Design Supply Air Humidity Ratio {kg-H2O/kg-air}
  ,                                       !- Zone Heating Sizing Factor
  ,                                       !- Zone Cooling Sizing Factor
  DesignDay,                              !- Cooling Design Air Flow Method
  ,                                       !- Cooling Design Air Flow Rate {m3/s}
  ,                                       !- Cooling Minimum Air Flow per Zone Floor Area {m3/s-m2}
  ,                                       !- Cooling Minimum Air Flow {m3/s}
  ,                                       !- Cooling Minimum Air Flow Fraction
  DesignDay,                              !- Heating Design Air Flow Method
  ,                                       !- Heating Design Air Flow Rate {m3/s}
  ,                                       !- Heating Maximum Air Flow per Zone Floor Area {m3/s-m2}
  ,                                       !- Heating Maximum Air Flow {m3/s}
  ,                                       !- Heating Maximum Air Flow Fraction
  ,                                       !- Design Zone Air Distribution Effectiveness in Cooling Mode
  ,                                       !- Design Zone Air Distribution Effectiveness in Heating Mode
  No,                                     !- Account for Dedicated Outdoor Air System
  NeutralSupplyAir,                       !- Dedicated Outdoor Air System Control Strategy
  autosize,                               !- Dedicated Outdoor Air Low Setpoint Temperature for Design {C}
  autosize;                               !- Dedicated Outdoor Air High Setpoint Temperature for Design {C}

OS:ZoneHVAC:EquipmentList,
  {256792a9-c577-487c-b115-350aa3480d33}, !- Handle
  Zone HVAC Equipment List 1,             !- Name
  {bb856341-68c9-495e-b93b-5c46441d175a}; !- Thermal Zone

OS:Space,
  {35ec22e9-4ebc-42b7-aa01-1d4c99965e95}, !- Handle
  living space,                           !- Name
  {04d47c25-abb8-43ed-b286-90cbcf805ab4}, !- Space Type Name
  ,                                       !- Default Construction Set Name
  ,                                       !- Default Schedule Set Name
  -0,                                     !- Direction of Relative North {deg}
  0,                                      !- X Origin {m}
  0,                                      !- Y Origin {m}
  0,                                      !- Z Origin {m}
  ,                                       !- Building Story Name
  {bb856341-68c9-495e-b93b-5c46441d175a}, !- Thermal Zone Name
  ,                                       !- Part of Total Floor Area
  ,                                       !- Design Specification Outdoor Air Object Name
  {61e5be75-2fa0-4253-9f36-7035888f70d9}; !- Building Unit Name

OS:Surface,
  {1112f208-11ab-4df5-94d5-64110bd87297}, !- Handle
  Surface 1,                              !- Name
  Floor,                                  !- Surface Type
  {74bdb6bd-7f8a-4638-8792-2a1dbdab8465}, !- Construction Name
  {35ec22e9-4ebc-42b7-aa01-1d4c99965e95}, !- Space Name
  Surface,                                !- Outside Boundary Condition
  {503286ff-b92b-45a0-9492-11750820a9c1}, !- Outside Boundary Condition Object
  NoSun,                                  !- Sun Exposure
  NoWind,                                 !- Wind Exposure
  ,                                       !- View Factor to Ground
  ,                                       !- Number of Vertices
  0, 0, 0,                                !- X,Y,Z Vertex 1 {m}
  0, 7.1732649261475, 0,                  !- X,Y,Z Vertex 2 {m}
  11.5396000973376, 7.1732649261475, 0,   !- X,Y,Z Vertex 3 {m}
  11.5396000973376, 0, 0;                 !- X,Y,Z Vertex 4 {m}

OS:Surface,
  {63c6b704-e235-4208-b1f8-ceb8c1144ba8}, !- Handle
  Surface 2,                              !- Name
  Wall,                                   !- Surface Type
  {c2ada802-f5a5-4b9f-8820-aefece663388}, !- Construction Name
  {35ec22e9-4ebc-42b7-aa01-1d4c99965e95}, !- Space Name
  Outdoors,                               !- Outside Boundary Condition
  ,                                       !- Outside Boundary Condition Object
  SunExposed,                             !- Sun Exposure
  WindExposed,                            !- Wind Exposure
  ,                                       !- View Factor to Ground
  ,                                       !- Number of Vertices
  0, 7.1732649261475, 2.4384,             !- X,Y,Z Vertex 1 {m}
  0, 7.1732649261475, 0,                  !- X,Y,Z Vertex 2 {m}
  0, 0, 0,                                !- X,Y,Z Vertex 3 {m}
  0, 0, 2.4384;                           !- X,Y,Z Vertex 4 {m}

OS:Surface,
  {fee05cfa-2f52-4552-b180-03ac8c43219c}, !- Handle
  Surface 3,                              !- Name
  Wall,                                   !- Surface Type
  {c2ada802-f5a5-4b9f-8820-aefece663388}, !- Construction Name
  {35ec22e9-4ebc-42b7-aa01-1d4c99965e95}, !- Space Name
  Outdoors,                               !- Outside Boundary Condition
  ,                                       !- Outside Boundary Condition Object
  SunExposed,                             !- Sun Exposure
  WindExposed,                            !- Wind Exposure
  ,                                       !- View Factor to Ground
  ,                                       !- Number of Vertices
  11.5396000973376, 7.1732649261475, 2.4384, !- X,Y,Z Vertex 1 {m}
  11.5396000973376, 7.1732649261475, 0,   !- X,Y,Z Vertex 2 {m}
  0, 7.1732649261475, 0,                  !- X,Y,Z Vertex 3 {m}
  0, 7.1732649261475, 2.4384;             !- X,Y,Z Vertex 4 {m}

OS:Surface,
  {10aae17e-456c-4e0c-8f5e-bfa185f0b2db}, !- Handle
  Surface 4,                              !- Name
  Wall,                                   !- Surface Type
  {c2ada802-f5a5-4b9f-8820-aefece663388}, !- Construction Name
  {35ec22e9-4ebc-42b7-aa01-1d4c99965e95}, !- Space Name
  Outdoors,                               !- Outside Boundary Condition
  ,                                       !- Outside Boundary Condition Object
  SunExposed,                             !- Sun Exposure
  WindExposed,                            !- Wind Exposure
  ,                                       !- View Factor to Ground
  ,                                       !- Number of Vertices
  11.5396000973376, 0, 2.4384,            !- X,Y,Z Vertex 1 {m}
  11.5396000973376, 0, 0,                 !- X,Y,Z Vertex 2 {m}
  11.5396000973376, 7.1732649261475, 0,   !- X,Y,Z Vertex 3 {m}
  11.5396000973376, 7.1732649261475, 2.4384; !- X,Y,Z Vertex 4 {m}

OS:Surface,
  {64131534-4c6c-4fe5-b7d3-5a6a9e02f1fe}, !- Handle
  Surface 5,                              !- Name
  Wall,                                   !- Surface Type
  {c2ada802-f5a5-4b9f-8820-aefece663388}, !- Construction Name
  {35ec22e9-4ebc-42b7-aa01-1d4c99965e95}, !- Space Name
  Outdoors,                               !- Outside Boundary Condition
  ,                                       !- Outside Boundary Condition Object
  SunExposed,                             !- Sun Exposure
  WindExposed,                            !- Wind Exposure
  ,                                       !- View Factor to Ground
  ,                                       !- Number of Vertices
  11.5396000973376, 0, 0,                 !- X,Y,Z Vertex 1 {m}
  11.5396000973376, 0, 2.4384,            !- X,Y,Z Vertex 2 {m}
  1.04865714285714, 0, 2.4384,            !- X,Y,Z Vertex 3 {m}
  1.04865714285714, 0, 0;                 !- X,Y,Z Vertex 4 {m}

OS:Surface,
  {f0b1780a-9c06-41af-bec1-1b8c623e08a5}, !- Handle
  Surface 6,                              !- Name
  RoofCeiling,                            !- Surface Type
  {a55ecc0d-5ce4-45e5-9aa4-3ad19c6fb4b3}, !- Construction Name
  {35ec22e9-4ebc-42b7-aa01-1d4c99965e95}, !- Space Name
  Surface,                                !- Outside Boundary Condition
  {0e50a7f5-3298-4c60-86de-502e0f90e4e6}, !- Outside Boundary Condition Object
  NoSun,                                  !- Sun Exposure
  NoWind,                                 !- Wind Exposure
  ,                                       !- View Factor to Ground
  ,                                       !- Number of Vertices
  11.5396000973376, 0, 2.4384,            !- X,Y,Z Vertex 1 {m}
  11.5396000973376, 7.1732649261475, 2.4384, !- X,Y,Z Vertex 2 {m}
  0, 7.1732649261475, 2.4384,             !- X,Y,Z Vertex 3 {m}
  0, 0, 2.4384;                           !- X,Y,Z Vertex 4 {m}

OS:SpaceType,
  {04d47c25-abb8-43ed-b286-90cbcf805ab4}, !- Handle
  Space Type 1,                           !- Name
  ,                                       !- Default Construction Set Name
  ,                                       !- Default Schedule Set Name
  ,                                       !- Group Rendering Name
  ,                                       !- Design Specification Outdoor Air Object Name
  ,                                       !- Standards Template
  ,                                       !- Standards Building Type
  living;                                 !- Standards Space Type

OS:Space,
  {97665bda-ea1d-40b2-9df8-da1dd09f735f}, !- Handle
  living space|story 2,                   !- Name
  {04d47c25-abb8-43ed-b286-90cbcf805ab4}, !- Space Type Name
  ,                                       !- Default Construction Set Name
  ,                                       !- Default Schedule Set Name
  -0,                                     !- Direction of Relative North {deg}
  0,                                      !- X Origin {m}
  0,                                      !- Y Origin {m}
  2.4384,                                 !- Z Origin {m}
  ,                                       !- Building Story Name
  {bb856341-68c9-495e-b93b-5c46441d175a}, !- Thermal Zone Name
  ,                                       !- Part of Total Floor Area
  ,                                       !- Design Specification Outdoor Air Object Name
  {61e5be75-2fa0-4253-9f36-7035888f70d9}; !- Building Unit Name

OS:Surface,
  {0e50a7f5-3298-4c60-86de-502e0f90e4e6}, !- Handle
  Surface 7,                              !- Name
  Floor,                                  !- Surface Type
  {7eed5114-8e98-4cfe-8063-95d665e746cb}, !- Construction Name
  {97665bda-ea1d-40b2-9df8-da1dd09f735f}, !- Space Name
  Surface,                                !- Outside Boundary Condition
  {f0b1780a-9c06-41af-bec1-1b8c623e08a5}, !- Outside Boundary Condition Object
  NoSun,                                  !- Sun Exposure
  NoWind,                                 !- Wind Exposure
  ,                                       !- View Factor to Ground
  ,                                       !- Number of Vertices
  0, 0, 0,                                !- X,Y,Z Vertex 1 {m}
  0, 7.1732649261475, 0,                  !- X,Y,Z Vertex 2 {m}
  11.5396000973376, 7.1732649261475, 0,   !- X,Y,Z Vertex 3 {m}
  11.5396000973376, 0, 0;                 !- X,Y,Z Vertex 4 {m}

OS:Surface,
  {bc659e19-b521-4ec4-b80f-0106c34bd229}, !- Handle
  Surface 8,                              !- Name
  Wall,                                   !- Surface Type
  {c2ada802-f5a5-4b9f-8820-aefece663388}, !- Construction Name
  {97665bda-ea1d-40b2-9df8-da1dd09f735f}, !- Space Name
  Outdoors,                               !- Outside Boundary Condition
  ,                                       !- Outside Boundary Condition Object
  SunExposed,                             !- Sun Exposure
  WindExposed,                            !- Wind Exposure
  ,                                       !- View Factor to Ground
  ,                                       !- Number of Vertices
  0, 7.1732649261475, 2.4384,             !- X,Y,Z Vertex 1 {m}
  0, 7.1732649261475, 0,                  !- X,Y,Z Vertex 2 {m}
  0, 0, 0,                                !- X,Y,Z Vertex 3 {m}
  0, 0, 2.4384;                           !- X,Y,Z Vertex 4 {m}

OS:Surface,
  {9cf69415-d3e0-4046-81fc-9e449d6db3e6}, !- Handle
  Surface 9,                              !- Name
  Wall,                                   !- Surface Type
  {c2ada802-f5a5-4b9f-8820-aefece663388}, !- Construction Name
  {97665bda-ea1d-40b2-9df8-da1dd09f735f}, !- Space Name
  Outdoors,                               !- Outside Boundary Condition
  ,                                       !- Outside Boundary Condition Object
  SunExposed,                             !- Sun Exposure
  WindExposed,                            !- Wind Exposure
  ,                                       !- View Factor to Ground
  ,                                       !- Number of Vertices
  11.5396000973376, 7.1732649261475, 2.4384, !- X,Y,Z Vertex 1 {m}
  11.5396000973376, 7.1732649261475, 0,   !- X,Y,Z Vertex 2 {m}