!- NOTE: Auto-generated from /test/osw_files/SFD_HVACSizing_Equip_MSHP_Autosize.osw

OS:Version,
  {150a6d9e-8346-4bd6-8d31-bc92416d2ff8}, !- Handle
  2.9.0;                                  !- Version Identifier

OS:SimulationControl,
  {1c29639f-48d2-453f-b04e-85694880b883}, !- Handle
  ,                                       !- Do Zone Sizing Calculation
  ,                                       !- Do System Sizing Calculation
  ,                                       !- Do Plant Sizing Calculation
  No;                                     !- Run Simulation for Sizing Periods

OS:Timestep,
  {4a391fd6-a994-45c4-b4c5-6bc519681ee3}, !- Handle
  6;                                      !- Number of Timesteps per Hour

OS:ShadowCalculation,
  {466c9064-c541-4ee8-89ac-41b57df97c10}, !- Handle
  20,                                     !- Calculation Frequency
  200;                                    !- Maximum Figures in Shadow Overlap Calculations

OS:SurfaceConvectionAlgorithm:Outside,
  {e4f2793f-d3a9-4f74-a278-a9c5a7e811ed}, !- Handle
  DOE-2;                                  !- Algorithm

OS:SurfaceConvectionAlgorithm:Inside,
  {c5ee379b-e3e1-4fbe-9b53-a905049ad6bb}, !- Handle
  TARP;                                   !- Algorithm

OS:ZoneCapacitanceMultiplier:ResearchSpecial,
  {00301812-c6bb-4161-9d0e-92a898ee2e87}, !- Handle
  ,                                       !- Temperature Capacity Multiplier
  15,                                     !- Humidity Capacity Multiplier
  ;                                       !- Carbon Dioxide Capacity Multiplier

OS:RunPeriod,
  {38b57e92-648c-4c5b-a09d-71f4d3e87a8e}, !- Handle
  Run Period 1,                           !- Name
  1,                                      !- Begin Month
  1,                                      !- Begin Day of Month
  12,                                     !- End Month
  31,                                     !- End Day of Month
  ,                                       !- Use Weather File Holidays and Special Days
  ,                                       !- Use Weather File Daylight Saving Period
  ,                                       !- Apply Weekend Holiday Rule
  ,                                       !- Use Weather File Rain Indicators
  ,                                       !- Use Weather File Snow Indicators
  ;                                       !- Number of Times Runperiod to be Repeated

OS:YearDescription,
  {cc1c13a9-e57c-49ba-9ffb-b1177a3e0dd2}, !- Handle
  2007,                                   !- Calendar Year
  ,                                       !- Day of Week for Start Day
  ;                                       !- Is Leap Year

OS:WeatherFile,
  {9f4134f9-cc77-4703-9dcf-45f09d72b221}, !- Handle
  Denver Intl Ap,                         !- City
  CO,                                     !- State Province Region
  USA,                                    !- Country
  TMY3,                                   !- Data Source
  725650,                                 !- WMO Number
  39.83,                                  !- Latitude {deg}
  -104.65,                                !- Longitude {deg}
  -7,                                     !- Time Zone {hr}
  1650,                                   !- Elevation {m}
  file:../weather/USA_CO_Denver.Intl.AP.725650_TMY3.epw, !- Url
  E23378AA;                               !- Checksum

OS:AdditionalProperties,
  {feaa198b-2325-469d-935f-11da54c36e20}, !- Handle
  {9f4134f9-cc77-4703-9dcf-45f09d72b221}, !- Object Name
  EPWHeaderCity,                          !- Feature Name 1
  String,                                 !- Feature Data Type 1
  Denver Intl Ap,                         !- Feature Value 1
  EPWHeaderState,                         !- Feature Name 2
  String,                                 !- Feature Data Type 2
  CO,                                     !- Feature Value 2
  EPWHeaderCountry,                       !- Feature Name 3
  String,                                 !- Feature Data Type 3
  USA,                                    !- Feature Value 3
  EPWHeaderDataSource,                    !- Feature Name 4
  String,                                 !- Feature Data Type 4
  TMY3,                                   !- Feature Value 4
  EPWHeaderStation,                       !- Feature Name 5
  String,                                 !- Feature Data Type 5
  725650,                                 !- Feature Value 5
  EPWHeaderLatitude,                      !- Feature Name 6
  Double,                                 !- Feature Data Type 6
  39.829999999999998,                     !- Feature Value 6
  EPWHeaderLongitude,                     !- Feature Name 7
  Double,                                 !- Feature Data Type 7
  -104.65000000000001,                    !- Feature Value 7
  EPWHeaderTimezone,                      !- Feature Name 8
  Double,                                 !- Feature Data Type 8
  -7,                                     !- Feature Value 8
  EPWHeaderAltitude,                      !- Feature Name 9
  Double,                                 !- Feature Data Type 9
  5413.3858267716532,                     !- Feature Value 9
  EPWHeaderLocalPressure,                 !- Feature Name 10
  Double,                                 !- Feature Data Type 10
  0.81937567683596546,                    !- Feature Value 10
  EPWHeaderRecordsPerHour,                !- Feature Name 11
  Double,                                 !- Feature Data Type 11
  0,                                      !- Feature Value 11
  EPWDataAnnualAvgDrybulb,                !- Feature Name 12
  Double,                                 !- Feature Data Type 12
  51.575616438356228,                     !- Feature Value 12
  EPWDataAnnualMinDrybulb,                !- Feature Name 13
  Double,                                 !- Feature Data Type 13
  -2.9200000000000017,                    !- Feature Value 13
  EPWDataAnnualMaxDrybulb,                !- Feature Name 14
  Double,                                 !- Feature Data Type 14
  104,                                    !- Feature Value 14
  EPWDataCDD50F,                          !- Feature Name 15
  Double,                                 !- Feature Data Type 15
  3072.2925000000005,                     !- Feature Value 15
  EPWDataCDD65F,                          !- Feature Name 16
  Double,                                 !- Feature Data Type 16
  883.62000000000035,                     !- Feature Value 16
  EPWDataHDD50F,                          !- Feature Name 17
  Double,                                 !- Feature Data Type 17
  2497.1925000000001,                     !- Feature Value 17
  EPWDataHDD65F,                          !- Feature Name 18
  Double,                                 !- Feature Data Type 18
  5783.5200000000013,                     !- Feature Value 18
  EPWDataAnnualAvgWindspeed,              !- Feature Name 19
  Double,                                 !- Feature Data Type 19
  3.9165296803649667,                     !- Feature Value 19
  EPWDataMonthlyAvgDrybulbs,              !- Feature Name 20
  String,                                 !- Feature Data Type 20
  33.4191935483871&#4431.90142857142857&#4443.02620967741937&#4442.48624999999999&#4459.877741935483854&#4473.57574999999997&#4472.07975806451608&#4472.70008064516134&#4466.49200000000006&#4450.079112903225806&#4437.218250000000005&#4434.582177419354835, !- Feature Value 20
  EPWDataGroundMonthlyTemps,              !- Feature Name 21
  String,                                 !- Feature Data Type 21
  44.08306285945173&#4440.89570904991865&#4440.64045432632048&#4442.153016571250646&#4448.225111118704206&#4454.268919273837525&#4459.508577937551024&#4462.82777283423508&#4463.10975667174995&#4460.41014950381947&#4455.304105212311526&#4449.445696474514364, !- Feature Value 21
  EPWDataWSF,                             !- Feature Name 22
  Double,                                 !- Feature Data Type 22
  0.58999999999999997,                    !- Feature Value 22
  EPWDataMonthlyAvgDailyHighDrybulbs,     !- Feature Name 23
  String,                                 !- Feature Data Type 23
  47.41032258064516&#4446.58642857142857&#4455.15032258064517&#4453.708&#4472.80193548387098&#4488.67600000000002&#4486.1858064516129&#4485.87225806451613&#4482.082&#4463.18064516129033&#4448.73400000000001&#4448.87935483870968, !- Feature Value 23
  EPWDataMonthlyAvgDailyLowDrybulbs,      !- Feature Name 24
  String,                                 !- Feature Data Type 24
  19.347741935483874&#4419.856428571428573&#4430.316129032258065&#4431.112&#4447.41612903225806&#4457.901999999999994&#4459.063870967741934&#4460.956774193548384&#4452.352000000000004&#4438.41612903225806&#4427.002000000000002&#4423.02903225806451, !- Feature Value 24
  EPWDesignHeatingDrybulb,                !- Feature Name 25
  Double,                                 !- Feature Data Type 25
  12.02,                                  !- Feature Value 25
  EPWDesignHeatingWindspeed,              !- Feature Name 26
  Double,                                 !- Feature Data Type 26
  2.8062500000000004,                     !- Feature Value 26
  EPWDesignCoolingDrybulb,                !- Feature Name 27
  Double,                                 !- Feature Data Type 27
  91.939999999999998,                     !- Feature Value 27
  EPWDesignCoolingWetbulb,                !- Feature Name 28
  Double,                                 !- Feature Data Type 28
  59.95131430195849,                      !- Feature Value 28
  EPWDesignCoolingHumidityRatio,          !- Feature Name 29
  Double,                                 !- Feature Data Type 29
  0.0059161086834698092,                  !- Feature Value 29
  EPWDesignCoolingWindspeed,              !- Feature Name 30
  Double,                                 !- Feature Data Type 30
  3.7999999999999989,                     !- Feature Value 30
  EPWDesignDailyTemperatureRange,         !- Feature Name 31
  Double,                                 !- Feature Data Type 31
  24.915483870967748,                     !- Feature Value 31
  EPWDesignDehumidDrybulb,                !- Feature Name 32
  Double,                                 !- Feature Data Type 32
  67.996785714285721,                     !- Feature Value 32
  EPWDesignDehumidHumidityRatio,          !- Feature Name 33
  Double,                                 !- Feature Data Type 33
  0.012133744170488724,                   !- Feature Value 33
  EPWDesignCoolingDirectNormal,           !- Feature Name 34
  Double,                                 !- Feature Data Type 34
  985,                                    !- Feature Value 34
  EPWDesignCoolingDiffuseHorizontal,      !- Feature Name 35
  Double,                                 !- Feature Data Type 35
  84;                                     !- Feature Value 35

OS:Site,
  {f8d02b95-0897-4ae3-b15d-da55d00c7872}, !- Handle
  Denver Intl Ap_CO_USA,                  !- Name
  39.83,                                  !- Latitude {deg}
  -104.65,                                !- Longitude {deg}
  -7,                                     !- Time Zone {hr}
  1650,                                   !- Elevation {m}
  Suburbs;                                !- Terrain

OS:ClimateZones,
  {bc307a41-5e7b-4731-81af-be4cf5da747f}, !- Handle
  ,                                       !- Active Institution
  ,                                       !- Active Year
  ,                                       !- Climate Zone Institution Name 1
  ,                                       !- Climate Zone Document Name 1
  ,                                       !- Climate Zone Document Year 1
  ,                                       !- Climate Zone Value 1
  Building America,                       !- Climate Zone Institution Name 2
  ,                                       !- Climate Zone Document Name 2
  0,                                      !- Climate Zone Document Year 2
  Cold;                                   !- Climate Zone Value 2

OS:Site:WaterMainsTemperature,
  {eebf9f38-c0a0-4072-8ec6-af29bddb7768}, !- Handle
  Correlation,                            !- Calculation Method
  ,                                       !- Temperature Schedule Name
  10.8753424657535,                       !- Annual Average Outdoor Air Temperature {C}
  23.1524007936508;                       !- Maximum Difference In Monthly Average Outdoor Air Temperatures {deltaC}

OS:RunPeriodControl:DaylightSavingTime,
  {8b7fb328-6b04-4d74-a971-8ffa9c0b8455}, !- Handle
  3/12,                                   !- Start Date
  11/5;                                   !- End Date

OS:Site:GroundTemperature:Deep,
  {14caa87b-60d8-420b-bf19-f7bece304090}, !- Handle
  10.8753424657535,                       !- January Deep Ground Temperature {C}
  10.8753424657535,                       !- February Deep Ground Temperature {C}
  10.8753424657535,                       !- March Deep Ground Temperature {C}
  10.8753424657535,                       !- April Deep Ground Temperature {C}
  10.8753424657535,                       !- May Deep Ground Temperature {C}
  10.8753424657535,                       !- June Deep Ground Temperature {C}
  10.8753424657535,                       !- July Deep Ground Temperature {C}
  10.8753424657535,                       !- August Deep Ground Temperature {C}
  10.8753424657535,                       !- September Deep Ground Temperature {C}
  10.8753424657535,                       !- October Deep Ground Temperature {C}
  10.8753424657535,                       !- November Deep Ground Temperature {C}
  10.8753424657535;                       !- December Deep Ground Temperature {C}

OS:Building,
  {33b766e7-4eea-495c-8e38-f0e3bed33e5e}, !- Handle
  Building 1,                             !- Name
  ,                                       !- Building Sector Type
  22.5,                                   !- North Axis {deg}
  ,                                       !- Nominal Floor to Floor Height {m}
  ,                                       !- Space Type Name
  ,                                       !- Default Construction Set Name
  ,                                       !- Default Schedule Set Name
  4,                                      !- Standards Number of Stories
  3,                                      !- Standards Number of Above Ground Stories
  ,                                       !- Standards Template
  singlefamilydetached,                   !- Standards Building Type
  1;                                      !- Standards Number of Living Units

OS:AdditionalProperties,
  {176913c4-1cc0-4f68-9a06-f19a5b4881ad}, !- Handle
  {33b766e7-4eea-495c-8e38-f0e3bed33e5e}, !- Object Name
  Total Units Modeled,                    !- Feature Name 1
  Integer,                                !- Feature Data Type 1
  1,                                      !- Feature Value 1
  has_water_heater_flue,                  !- Feature Name 2
  Boolean,                                !- Feature Data Type 2
  true;                                   !- Feature Value 2

OS:ThermalZone,
  {8ff09f6f-adc3-462f-a9f9-e9f282da2987}, !- Handle
  living zone,                            !- Name
  ,                                       !- Multiplier
  ,                                       !- Ceiling Height {m}
  ,                                       !- Volume {m3}
  ,                                       !- Floor Area {m2}
  ,                                       !- Zone Inside Convection Algorithm
  ,                                       !- Zone Outside Convection Algorithm
  ,                                       !- Zone Conditioning Equipment List Name
  {f264c984-6122-4959-a145-6f63d8cb06bd}, !- Zone Air Inlet Port List
  {7a3f6b0b-3343-466a-95ed-6f82fed491e4}, !- Zone Air Exhaust Port List
  {8bf1a4e8-4bb0-40b0-811c-ab7637ef27e4}, !- Zone Air Node Name
  {a107e3de-c6e2-4a1a-a3a2-592a3cb8c9e1}, !- Zone Return Air Port List
  ,                                       !- Primary Daylighting Control Name
  ,                                       !- Fraction of Zone Controlled by Primary Daylighting Control
  ,                                       !- Secondary Daylighting Control Name
  ,                                       !- Fraction of Zone Controlled by Secondary Daylighting Control
  ,                                       !- Illuminance Map Name
  ,                                       !- Group Rendering Name
  {d2d2017c-e5d5-4021-9683-9d2df7345b34}, !- Thermostat Name
  No;                                     !- Use Ideal Air Loads

OS:Node,
  {ca93ffd6-150c-405c-8796-ac9e984176d8}, !- Handle
  Node 1,                                 !- Name
  {8bf1a4e8-4bb0-40b0-811c-ab7637ef27e4}, !- Inlet Port
  ;                                       !- Outlet Port

OS:Connection,
  {8bf1a4e8-4bb0-40b0-811c-ab7637ef27e4}, !- Handle
  {a6460e76-764c-464c-ba3c-8934260943e8}, !- Name
  {8ff09f6f-adc3-462f-a9f9-e9f282da2987}, !- Source Object
  11,                                     !- Outlet Port
  {ca93ffd6-150c-405c-8796-ac9e984176d8}, !- Target Object
  2;                                      !- Inlet Port

OS:PortList,
  {f264c984-6122-4959-a145-6f63d8cb06bd}, !- Handle
  {869f3633-2968-4588-b9a7-f7977f8350c6}, !- Name
  {8ff09f6f-adc3-462f-a9f9-e9f282da2987}, !- HVAC Component
  {9feefe8e-ad60-42bd-a94b-84ff8e785e53}, !- Port 1
  {fde1aca8-37eb-43bd-856e-515d5e0bb994}; !- Port 2

OS:PortList,
  {7a3f6b0b-3343-466a-95ed-6f82fed491e4}, !- Handle
  {0318d593-8862-4913-9bfe-7510cfba0af3}, !- Name
  {8ff09f6f-adc3-462f-a9f9-e9f282da2987}; !- HVAC Component

OS:PortList,
  {a107e3de-c6e2-4a1a-a3a2-592a3cb8c9e1}, !- Handle
  {4ae9b769-7ead-456b-8e29-14aeb179a270}, !- Name
  {8ff09f6f-adc3-462f-a9f9-e9f282da2987}, !- HVAC Component
  {bc2686b3-1a4e-419c-bd9c-40e7532e9d85}, !- Port 1
  {6b2bfeac-842c-44f5-9ee2-e3488253ce62}; !- Port 2

OS:Sizing:Zone,
  {1e360b45-2e1a-4902-ba6f-c1a64a167ce3}, !- Handle
  {8ff09f6f-adc3-462f-a9f9-e9f282da2987}, !- Zone or ZoneList Name
  SupplyAirTemperature,                   !- Zone Cooling Design Supply Air Temperature Input Method
  14,                                     !- Zone Cooling Design Supply Air Temperature {C}
  11.11,                                  !- Zone Cooling Design Supply Air Temperature Difference {deltaC}
  SupplyAirTemperature,                   !- Zone Heating Design Supply Air Temperature Input Method
  40,                                     !- Zone Heating Design Supply Air Temperature {C}
  11.11,                                  !- Zone Heating Design Supply Air Temperature Difference {deltaC}
  0.0085,                                 !- Zone Cooling Design Supply Air Humidity Ratio {kg-H2O/kg-air}
  0.008,                                  !- Zone Heating Design Supply Air Humidity Ratio {kg-H2O/kg-air}
  ,                                       !- Zone Heating Sizing Factor
  ,                                       !- Zone Cooling Sizing Factor
  DesignDay,                              !- Cooling Design Air Flow Method
  ,                                       !- Cooling Design Air Flow Rate {m3/s}
  ,                                       !- Cooling Minimum Air Flow per Zone Floor Area {m3/s-m2}
  ,                                       !- Cooling Minimum Air Flow {m3/s}
  ,                                       !- Cooling Minimum Air Flow Fraction
  DesignDay,                              !- Heating Design Air Flow Method
  ,                                       !- Heating Design Air Flow Rate {m3/s}
  ,                                       !- Heating Maximum Air Flow per Zone Floor Area {m3/s-m2}
  ,                                       !- Heating Maximum Air Flow {m3/s}
  ,                                       !- Heating Maximum Air Flow Fraction
  ,                                       !- Design Zone Air Distribution Effectiveness in Cooling Mode
  ,                                       !- Design Zone Air Distribution Effectiveness in Heating Mode
  No,                                     !- Account for Dedicated Outdoor Air System
  NeutralSupplyAir,                       !- Dedicated Outdoor Air System Control Strategy
  autosize,                               !- Dedicated Outdoor Air Low Setpoint Temperature for Design {C}
  autosize;                               !- Dedicated Outdoor Air High Setpoint Temperature for Design {C}

OS:ZoneHVAC:EquipmentList,
  {a5ec624c-352d-41c8-b232-83508076597e}, !- Handle
  Zone HVAC Equipment List 1,             !- Name
  {8ff09f6f-adc3-462f-a9f9-e9f282da2987}, !- Thermal Zone
  SequentialLoad,                         !- Load Distribution Scheme
  {01973ef3-9a31-4801-8a0b-d6292f43f93a}, !- Zone Equipment 1
  1,                                      !- Zone Equipment Cooling Sequence 1
  1,                                      !- Zone Equipment Heating or No-Load Sequence 1
  ,                                       !- Zone Equipment Sequential Cooling Fraction Schedule Name 1
  ,                                       !- Zone Equipment Sequential Heating Fraction Schedule Name 1
  {880729b7-0ae5-4ba3-9599-d2c27471eaa9}, !- Zone Equipment 2
  2,                                      !- Zone Equipment Cooling Sequence 2
  2,                                      !- Zone Equipment Heating or No-Load Sequence 2
  ,                                       !- Zone Equipment Sequential Cooling Fraction Schedule Name 2
  ;                                       !- Zone Equipment Sequential Heating Fraction Schedule Name 2

OS:ThermalZone,
  {19b43559-b181-4c6e-a3d2-a59232aeaa38}, !- Handle
  garage zone,                            !- Name
  ,                                       !- Multiplier
  ,                                       !- Ceiling Height {m}
  ,                                       !- Volume {m3}
  ,                                       !- Floor Area {m2}
  ,                                       !- Zone Inside Convection Algorithm
  ,                                       !- Zone Outside Convection Algorithm
  ,                                       !- Zone Conditioning Equipment List Name
  {1ac21472-13a2-4f6a-8197-940d518ba132}, !- Zone Air Inlet Port List
  {0bccfd30-9225-4d06-b6b3-7493e94a10ca}, !- Zone Air Exhaust Port List
  {23716f78-ae77-456c-abe6-8cb79d2141bd}, !- Zone Air Node Name
  {a7d48fd5-53ae-4a63-8c0d-d05caa4c7a30}, !- Zone Return Air Port List
  ,                                       !- Primary Daylighting Control Name
  ,                                       !- Fraction of Zone Controlled by Primary Daylighting Control
  ,                                       !- Secondary Daylighting Control Name
  ,                                       !- Fraction of Zone Controlled by Secondary Daylighting Control
  ,                                       !- Illuminance Map Name
  ,                                       !- Group Rendering Name
  ,                                       !- Thermostat Name
  No;                                     !- Use Ideal Air Loads

OS:Node,
  {fdbeaa2e-6776-4f56-ad7d-95a41f6ce786}, !- Handle
  Node 2,                                 !- Name
  {23716f78-ae77-456c-abe6-8cb79d2141bd}, !- Inlet Port
  ;                                       !- Outlet Port

OS:Connection,
  {23716f78-ae77-456c-abe6-8cb79d2141bd}, !- Handle
  {80843d97-bfef-4133-85a2-28de4e422138}, !- Name
  {19b43559-b181-4c6e-a3d2-a59232aeaa38}, !- Source Object
  11,                                     !- Outlet Port
  {fdbeaa2e-6776-4f56-ad7d-95a41f6ce786}, !- Target Object
  2;                                      !- Inlet Port

OS:PortList,
  {1ac21472-13a2-4f6a-8197-940d518ba132}, !- Handle
  {e2538de0-4c16-4197-836b-c487b86d2220}, !- Name
  {19b43559-b181-4c6e-a3d2-a59232aeaa38}; !- HVAC Component

OS:PortList,
  {0bccfd30-9225-4d06-b6b3-7493e94a10ca}, !- Handle
  {e4206cf3-636b-4e45-8d7b-37b22e40f7a3}, !- Name
  {19b43559-b181-4c6e-a3d2-a59232aeaa38}; !- HVAC Component

OS:PortList,
  {a7d48fd5-53ae-4a63-8c0d-d05caa4c7a30}, !- Handle
  {c231efed-1539-4afa-8467-64d0b0ec594f}, !- Name
  {19b43559-b181-4c6e-a3d2-a59232aeaa38}; !- HVAC Component

OS:Sizing:Zone,
  {ae37f60a-8d27-4ffc-b459-4afc2891b1b2}, !- Handle
  {19b43559-b181-4c6e-a3d2-a59232aeaa38}, !- Zone or ZoneList Name
  SupplyAirTemperature,                   !- Zone Cooling Design Supply Air Temperature Input Method
  14,                                     !- Zone Cooling Design Supply Air Temperature {C}
  11.11,                                  !- Zone Cooling Design Supply Air Temperature Difference {deltaC}
  SupplyAirTemperature,                   !- Zone Heating Design Supply Air Temperature Input Method
  40,                                     !- Zone Heating Design Supply Air Temperature {C}
  11.11,                                  !- Zone Heating Design Supply Air Temperature Difference {deltaC}
  0.0085,                                 !- Zone Cooling Design Supply Air Humidity Ratio {kg-H2O/kg-air}
  0.008,                                  !- Zone Heating Design Supply Air Humidity Ratio {kg-H2O/kg-air}
  ,                                       !- Zone Heating Sizing Factor
  ,                                       !- Zone Cooling Sizing Factor
  DesignDay,                              !- Cooling Design Air Flow Method
  ,                                       !- Cooling Design Air Flow Rate {m3/s}
  ,                                       !- Cooling Minimum Air Flow per Zone Floor Area {m3/s-m2}
  ,                                       !- Cooling Minimum Air Flow {m3/s}
  ,                                       !- Cooling Minimum Air Flow Fraction
  DesignDay,                              !- Heating Design Air Flow Method
  ,                                       !- Heating Design Air Flow Rate {m3/s}
  ,                                       !- Heating Maximum Air Flow per Zone Floor Area {m3/s-m2}
  ,                                       !- Heating Maximum Air Flow {m3/s}
  ,                                       !- Heating Maximum Air Flow Fraction
  ,                                       !- Design Zone Air Distribution Effectiveness in Cooling Mode
  ,                                       !- Design Zone Air Distribution Effectiveness in Heating Mode
  No,                                     !- Account for Dedicated Outdoor Air System
  NeutralSupplyAir,                       !- Dedicated Outdoor Air System Control Strategy
  autosize,                               !- Dedicated Outdoor Air Low Setpoint Temperature for Design {C}
  autosize;                               !- Dedicated Outdoor Air High Setpoint Temperature for Design {C}

OS:ZoneHVAC:EquipmentList,
  {c2392d0b-6537-4ba2-be8e-bf9ff1c58d45}, !- Handle
  Zone HVAC Equipment List 2,             !- Name
  {19b43559-b181-4c6e-a3d2-a59232aeaa38}; !- Thermal Zone

OS:Space,
  {bae3a5ed-e9b4-4930-a5f3-23f2b79243cf}, !- Handle
  garage space,                           !- Name
  {4323bc60-c1f3-4c82-949b-b30b1ac7bc0e}, !- Space Type Name
  ,                                       !- Default Construction Set Name
  ,                                       !- Default Schedule Set Name
  -0,                                     !- Direction of Relative North {deg}
  0,                                      !- X Origin {m}
  0,                                      !- Y Origin {m}
  0,                                      !- Z Origin {m}
  ,                                       !- Building Story Name
  {19b43559-b181-4c6e-a3d2-a59232aeaa38}; !- Thermal Zone Name

OS:Surface,
  {3d9ed63d-c837-42b2-bf8b-b05ea7fe3af8}, !- Handle
  Surface 1,                              !- Name
  Floor,                                  !- Surface Type
  {f1af3dc1-3422-434d-abfb-4df971c4533d}, !- Construction Name
  {bae3a5ed-e9b4-4930-a5f3-23f2b79243cf}, !- Space Name
  Foundation,                             !- Outside Boundary Condition
  {79a64825-0b55-4828-9ee1-8c0fda727564}, !- Outside Boundary Condition Object
  NoSun,                                  !- Sun Exposure
  NoWind,                                 !- Wind Exposure
  ,                                       !- View Factor to Ground
  ,                                       !- Number of Vertices
  8.91701625975123, -3.048, 0,            !- X,Y,Z Vertex 1 {m}
  8.91701625975123, 3.048, 0,             !- X,Y,Z Vertex 2 {m}
  12.5746162597512, 3.048, 0,             !- X,Y,Z Vertex 3 {m}
  12.5746162597512, -3.048, 0;            !- X,Y,Z Vertex 4 {m}

OS:Surface,
  {befeea28-df75-4fdf-92f3-a7572d0305fc}, !- Handle
  Surface 2,                              !- Name
  Wall,                                   !- Surface Type
  {4098df23-e96e-4078-8ade-1bacd22f77e4}, !- Construction Name
  {bae3a5ed-e9b4-4930-a5f3-23f2b79243cf}, !- Space Name
  Surface,                                !- Outside Boundary Condition
  {7c0a2065-2ccb-4fb4-af2a-8132e16a3897}, !- Outside Boundary Condition Object
  NoSun,                                  !- Sun Exposure
  NoWind,                                 !- Wind Exposure
  ,                                       !- View Factor to Ground
  ,                                       !- Number of Vertices
  8.91701625975123, 3.048, 2.4384,        !- X,Y,Z Vertex 1 {m}
  8.91701625975123, 3.048, 0,             !- X,Y,Z Vertex 2 {m}
  8.91701625975123, 0, 0,                 !- X,Y,Z Vertex 3 {m}
  8.91701625975123, 0, 2.4384;            !- X,Y,Z Vertex 4 {m}

OS:Surface,
  {ba0ee358-3ee1-43eb-926f-cbb75a7ea627}, !- Handle
  Surface 3,                              !- Name
  Wall,                                   !- Surface Type
  {4098df23-e96e-4078-8ade-1bacd22f77e4}, !- Construction Name
  {bae3a5ed-e9b4-4930-a5f3-23f2b79243cf}, !- Space Name
  Surface,                                !- Outside Boundary Condition