!- NOTE: Auto-generated from /test/osw_files/SFD_1story_FB_UA_GRG_MSHP_FuelTanklessWH.osw

OS:Version,
  {b19abb73-23ab-42e4-87dc-0328b747c67a}, !- Handle
  2.8.1;                                  !- Version Identifier

OS:SimulationControl,
  {f6f47d4b-5f4c-4a05-9cf2-b5b798690cb7}, !- Handle
  ,                                       !- Do Zone Sizing Calculation
  ,                                       !- Do System Sizing Calculation
  ,                                       !- Do Plant Sizing Calculation
  No;                                     !- Run Simulation for Sizing Periods

OS:Timestep,
  {c5cb7553-90ad-4ec5-b066-0917c9a078b0}, !- Handle
  6;                                      !- Number of Timesteps per Hour

OS:ShadowCalculation,
  {cb7e9dfb-5c12-45c3-ac3d-967a3953a19e}, !- Handle
  20,                                     !- Calculation Frequency
  200;                                    !- Maximum Figures in Shadow Overlap Calculations

OS:SurfaceConvectionAlgorithm:Outside,
  {e758f52d-ca1b-4f86-a643-beb9a18e0928}, !- Handle
  DOE-2;                                  !- Algorithm

OS:SurfaceConvectionAlgorithm:Inside,
  {70c51a2f-504e-45b6-9745-1278a1045362}, !- Handle
  TARP;                                   !- Algorithm

OS:ZoneCapacitanceMultiplier:ResearchSpecial,
  {4a52d887-2ce0-4762-90c7-80724e8e016b}, !- Handle
  ,                                       !- Temperature Capacity Multiplier
  15,                                     !- Humidity Capacity Multiplier
  ;                                       !- Carbon Dioxide Capacity Multiplier

OS:RunPeriod,
  {a03c04fc-d285-4655-bdb8-cdebd2c29457}, !- Handle
  Run Period 1,                           !- Name
  1,                                      !- Begin Month
  1,                                      !- Begin Day of Month
  12,                                     !- End Month
  31,                                     !- End Day of Month
  ,                                       !- Use Weather File Holidays and Special Days
  ,                                       !- Use Weather File Daylight Saving Period
  ,                                       !- Apply Weekend Holiday Rule
  ,                                       !- Use Weather File Rain Indicators
  ,                                       !- Use Weather File Snow Indicators
  ;                                       !- Number of Times Runperiod to be Repeated

OS:WeatherFile,
  {cb56b675-bb7c-4b34-8014-155831837413}, !- Handle
  Denver Intl Ap,                         !- City
  CO,                                     !- State Province Region
  USA,                                    !- Country
  TMY3,                                   !- Data Source
  725650,                                 !- WMO Number
  39.83,                                  !- Latitude {deg}
  -104.65,                                !- Longitude {deg}
  -7,                                     !- Time Zone {hr}
  1650,                                   !- Elevation {m}
  file:../weather/USA_CO_Denver.Intl.AP.725650_TMY3.epw, !- Url
  E23378AA;                               !- Checksum

OS:AdditionalProperties,
  {646bc566-c13a-4c20-9ec6-2d32b79f1302}, !- Handle
  {cb56b675-bb7c-4b34-8014-155831837413}, !- Object Name
  EPWHeaderCity,                          !- Feature Name 1
  String,                                 !- Feature Data Type 1
  Denver Intl Ap,                         !- Feature Value 1
  EPWHeaderState,                         !- Feature Name 2
  String,                                 !- Feature Data Type 2
  CO,                                     !- Feature Value 2
  EPWHeaderCountry,                       !- Feature Name 3
  String,                                 !- Feature Data Type 3
  USA,                                    !- Feature Value 3
  EPWHeaderDataSource,                    !- Feature Name 4
  String,                                 !- Feature Data Type 4
  TMY3,                                   !- Feature Value 4
  EPWHeaderStation,                       !- Feature Name 5
  String,                                 !- Feature Data Type 5
  725650,                                 !- Feature Value 5
  EPWHeaderLatitude,                      !- Feature Name 6
  Double,                                 !- Feature Data Type 6
  39.829999999999998,                     !- Feature Value 6
  EPWHeaderLongitude,                     !- Feature Name 7
  Double,                                 !- Feature Data Type 7
  -104.65000000000001,                    !- Feature Value 7
  EPWHeaderTimezone,                      !- Feature Name 8
  Double,                                 !- Feature Data Type 8
  -7,                                     !- Feature Value 8
  EPWHeaderAltitude,                      !- Feature Name 9
  Double,                                 !- Feature Data Type 9
  5413.3858267716532,                     !- Feature Value 9
  EPWHeaderLocalPressure,                 !- Feature Name 10
  Double,                                 !- Feature Data Type 10
  0.81937567683596546,                    !- Feature Value 10
  EPWHeaderRecordsPerHour,                !- Feature Name 11
  Double,                                 !- Feature Data Type 11
  0,                                      !- Feature Value 11
  EPWDataAnnualAvgDrybulb,                !- Feature Name 12
  Double,                                 !- Feature Data Type 12
  51.575616438356228,                     !- Feature Value 12
  EPWDataAnnualMinDrybulb,                !- Feature Name 13
  Double,                                 !- Feature Data Type 13
  -2.9200000000000017,                    !- Feature Value 13
  EPWDataAnnualMaxDrybulb,                !- Feature Name 14
  Double,                                 !- Feature Data Type 14
  104,                                    !- Feature Value 14
  EPWDataCDD50F,                          !- Feature Name 15
  Double,                                 !- Feature Data Type 15
  3072.2925000000005,                     !- Feature Value 15
  EPWDataCDD65F,                          !- Feature Name 16
  Double,                                 !- Feature Data Type 16
  883.62000000000035,                     !- Feature Value 16
  EPWDataHDD50F,                          !- Feature Name 17
  Double,                                 !- Feature Data Type 17
  2497.1925000000001,                     !- Feature Value 17
  EPWDataHDD65F,                          !- Feature Name 18
  Double,                                 !- Feature Data Type 18
  5783.5200000000013,                     !- Feature Value 18
  EPWDataAnnualAvgWindspeed,              !- Feature Name 19
  Double,                                 !- Feature Data Type 19
  3.9165296803649667,                     !- Feature Value 19
  EPWDataMonthlyAvgDrybulbs,              !- Feature Name 20
  String,                                 !- Feature Data Type 20
  33.4191935483871&#4431.90142857142857&#4443.02620967741937&#4442.48624999999999&#4459.877741935483854&#4473.57574999999997&#4472.07975806451608&#4472.70008064516134&#4466.49200000000006&#4450.079112903225806&#4437.218250000000005&#4434.582177419354835, !- Feature Value 20
  EPWDataGroundMonthlyTemps,              !- Feature Name 21
  String,                                 !- Feature Data Type 21
  44.08306285945173&#4440.89570904991865&#4440.64045432632048&#4442.153016571250646&#4448.225111118704206&#4454.268919273837525&#4459.508577937551024&#4462.82777283423508&#4463.10975667174995&#4460.41014950381947&#4455.304105212311526&#4449.445696474514364, !- Feature Value 21
  EPWDataWSF,                             !- Feature Name 22
  Double,                                 !- Feature Data Type 22
  0.58999999999999997,                    !- Feature Value 22
  EPWDataMonthlyAvgDailyHighDrybulbs,     !- Feature Name 23
  String,                                 !- Feature Data Type 23
  47.41032258064516&#4446.58642857142857&#4455.15032258064517&#4453.708&#4472.80193548387098&#4488.67600000000002&#4486.1858064516129&#4485.87225806451613&#4482.082&#4463.18064516129033&#4448.73400000000001&#4448.87935483870968, !- Feature Value 23
  EPWDataMonthlyAvgDailyLowDrybulbs,      !- Feature Name 24
  String,                                 !- Feature Data Type 24
  19.347741935483874&#4419.856428571428573&#4430.316129032258065&#4431.112&#4447.41612903225806&#4457.901999999999994&#4459.063870967741934&#4460.956774193548384&#4452.352000000000004&#4438.41612903225806&#4427.002000000000002&#4423.02903225806451, !- Feature Value 24
  EPWDesignHeatingDrybulb,                !- Feature Name 25
  Double,                                 !- Feature Data Type 25
  12.02,                                  !- Feature Value 25
  EPWDesignHeatingWindspeed,              !- Feature Name 26
  Double,                                 !- Feature Data Type 26
  2.8062500000000004,                     !- Feature Value 26
  EPWDesignCoolingDrybulb,                !- Feature Name 27
  Double,                                 !- Feature Data Type 27
  91.939999999999998,                     !- Feature Value 27
  EPWDesignCoolingWetbulb,                !- Feature Name 28
  Double,                                 !- Feature Data Type 28
  59.95131430195849,                      !- Feature Value 28
  EPWDesignCoolingHumidityRatio,          !- Feature Name 29
  Double,                                 !- Feature Data Type 29
  0.0059161086834698092,                  !- Feature Value 29
  EPWDesignCoolingWindspeed,              !- Feature Name 30
  Double,                                 !- Feature Data Type 30
  3.7999999999999989,                     !- Feature Value 30
  EPWDesignDailyTemperatureRange,         !- Feature Name 31
  Double,                                 !- Feature Data Type 31
  24.915483870967748,                     !- Feature Value 31
  EPWDesignDehumidDrybulb,                !- Feature Name 32
  Double,                                 !- Feature Data Type 32
  67.996785714285721,                     !- Feature Value 32
  EPWDesignDehumidHumidityRatio,          !- Feature Name 33
  Double,                                 !- Feature Data Type 33
  0.012133744170488724,                   !- Feature Value 33
  EPWDesignCoolingDirectNormal,           !- Feature Name 34
  Double,                                 !- Feature Data Type 34
  985,                                    !- Feature Value 34
  EPWDesignCoolingDiffuseHorizontal,      !- Feature Name 35
  Double,                                 !- Feature Data Type 35
  84;                                     !- Feature Value 35

OS:YearDescription,
  {9bd95f9a-a11b-4c5f-8785-1996c20f7409}, !- Handle
  ,                                       !- Calendar Year
  Monday;                                 !- Day of Week for Start Day

OS:Site,
  {b7c25521-d3bc-44ba-8d74-0f85150b0b02}, !- Handle
  Denver Intl Ap_CO_USA,                  !- Name
  39.83,                                  !- Latitude {deg}
  -104.65,                                !- Longitude {deg}
  -7,                                     !- Time Zone {hr}
  1650,                                   !- Elevation {m}
  Suburbs;                                !- Terrain

OS:ClimateZones,
  {f71e1ec1-f9c5-4379-835f-8780c035f83f}, !- Handle
  ,                                       !- Active Institution
  ,                                       !- Active Year
  ,                                       !- Climate Zone Institution Name 1
  ,                                       !- Climate Zone Document Name 1
  ,                                       !- Climate Zone Document Year 1
  ,                                       !- Climate Zone Value 1
  Building America,                       !- Climate Zone Institution Name 2
  ,                                       !- Climate Zone Document Name 2
  0,                                      !- Climate Zone Document Year 2
  Cold;                                   !- Climate Zone Value 2

OS:Site:WaterMainsTemperature,
  {cedba62a-4e45-44b0-bf96-25f1ffe3d4b8}, !- Handle
  Correlation,                            !- Calculation Method
  ,                                       !- Temperature Schedule Name
  10.8753424657535,                       !- Annual Average Outdoor Air Temperature {C}
  23.1524007936508;                       !- Maximum Difference In Monthly Average Outdoor Air Temperatures {deltaC}

OS:RunPeriodControl:DaylightSavingTime,
  {d81988a7-5582-467b-855f-c4ea15c5517e}, !- Handle
  4/7,                                    !- Start Date
  10/26;                                  !- End Date

OS:Site:GroundTemperature:Deep,
  {6c625904-9eca-48c5-acc2-7abf96df557f}, !- Handle
  10.8753424657535,                       !- January Deep Ground Temperature {C}
  10.8753424657535,                       !- February Deep Ground Temperature {C}
  10.8753424657535,                       !- March Deep Ground Temperature {C}
  10.8753424657535,                       !- April Deep Ground Temperature {C}
  10.8753424657535,                       !- May Deep Ground Temperature {C}
  10.8753424657535,                       !- June Deep Ground Temperature {C}
  10.8753424657535,                       !- July Deep Ground Temperature {C}
  10.8753424657535,                       !- August Deep Ground Temperature {C}
  10.8753424657535,                       !- September Deep Ground Temperature {C}
  10.8753424657535,                       !- October Deep Ground Temperature {C}
  10.8753424657535,                       !- November Deep Ground Temperature {C}
  10.8753424657535;                       !- December Deep Ground Temperature {C}

OS:ThermalZone,
  {340dd57e-e5e2-457f-88e9-ffc250f356f9}, !- Handle
  living zone,                            !- Name
  ,                                       !- Multiplier
  ,                                       !- Ceiling Height {m}
  ,                                       !- Volume {m3}
  ,                                       !- Floor Area {m2}
  ,                                       !- Zone Inside Convection Algorithm
  ,                                       !- Zone Outside Convection Algorithm
  ,                                       !- Zone Conditioning Equipment List Name
  {1e8470bc-ef45-4ee6-ac2d-8e0e4d575a0a}, !- Zone Air Inlet Port List
  {6190fad2-f89a-4295-ad96-c66e9cddc2f2}, !- Zone Air Exhaust Port List
  {b0f1c8ea-16b9-45a2-b6fb-9e744607fcc1}, !- Zone Air Node Name
  {8d5f2f24-bc44-472d-a6be-7168f3324926}, !- Zone Return Air Port List
  ,                                       !- Primary Daylighting Control Name
  ,                                       !- Fraction of Zone Controlled by Primary Daylighting Control
  ,                                       !- Secondary Daylighting Control Name
  ,                                       !- Fraction of Zone Controlled by Secondary Daylighting Control
  ,                                       !- Illuminance Map Name
  ,                                       !- Group Rendering Name
  {168395f2-590d-4eea-9630-6e7ecc36734f}, !- Thermostat Name
  No;                                     !- Use Ideal Air Loads

OS:Node,
  {1532ded9-6f4c-41f1-afe2-b7ad36127b1c}, !- Handle
  Node 1,                                 !- Name
  {b0f1c8ea-16b9-45a2-b6fb-9e744607fcc1}, !- Inlet Port
  ;                                       !- Outlet Port

OS:Connection,
  {b0f1c8ea-16b9-45a2-b6fb-9e744607fcc1}, !- Handle
  {17dad0df-f8b6-49d1-a241-0165387c588f}, !- Name
  {340dd57e-e5e2-457f-88e9-ffc250f356f9}, !- Source Object
  11,                                     !- Outlet Port
  {1532ded9-6f4c-41f1-afe2-b7ad36127b1c}, !- Target Object
  2;                                      !- Inlet Port

OS:PortList,
  {1e8470bc-ef45-4ee6-ac2d-8e0e4d575a0a}, !- Handle
  {189f4775-ca27-412e-a27c-19e0c7faa01a}, !- Name
  {340dd57e-e5e2-457f-88e9-ffc250f356f9}, !- HVAC Component
  {73b345ea-f42d-428a-bc06-495aa4e62219}, !- Port 1
  {37324bde-8b89-46c4-ac86-eec93061499a}; !- Port 2

OS:PortList,
  {6190fad2-f89a-4295-ad96-c66e9cddc2f2}, !- Handle
  {42d7458d-a62c-421c-b826-5c208cc1c1ff}, !- Name
  {340dd57e-e5e2-457f-88e9-ffc250f356f9}; !- HVAC Component

OS:PortList,
  {8d5f2f24-bc44-472d-a6be-7168f3324926}, !- Handle
  {45f2a60b-1e06-4d15-9ed0-bb692ecc68f1}, !- Name
  {340dd57e-e5e2-457f-88e9-ffc250f356f9}, !- HVAC Component
  {2d1e1ad2-3419-4021-832c-69ef0c65705e}, !- Port 1
  {8e036c91-5411-41ef-81f3-3b0466a43899}; !- Port 2

OS:Sizing:Zone,
  {d5c33adb-8ebe-44dc-bc44-94ddc3a98fe9}, !- Handle
  {340dd57e-e5e2-457f-88e9-ffc250f356f9}, !- Zone or ZoneList Name
  SupplyAirTemperature,                   !- Zone Cooling Design Supply Air Temperature Input Method
  14,                                     !- Zone Cooling Design Supply Air Temperature {C}
  11.11,                                  !- Zone Cooling Design Supply Air Temperature Difference {deltaC}
  SupplyAirTemperature,                   !- Zone Heating Design Supply Air Temperature Input Method
  40,                                     !- Zone Heating Design Supply Air Temperature {C}
  11.11,                                  !- Zone Heating Design Supply Air Temperature Difference {deltaC}
  0.0085,                                 !- Zone Cooling Design Supply Air Humidity Ratio {kg-H2O/kg-air}
  0.008,                                  !- Zone Heating Design Supply Air Humidity Ratio {kg-H2O/kg-air}
  ,                                       !- Zone Heating Sizing Factor
  ,                                       !- Zone Cooling Sizing Factor
  DesignDay,                              !- Cooling Design Air Flow Method
  ,                                       !- Cooling Design Air Flow Rate {m3/s}
  ,                                       !- Cooling Minimum Air Flow per Zone Floor Area {m3/s-m2}
  ,                                       !- Cooling Minimum Air Flow {m3/s}
  ,                                       !- Cooling Minimum Air Flow Fraction
  DesignDay,                              !- Heating Design Air Flow Method
  ,                                       !- Heating Design Air Flow Rate {m3/s}
  ,                                       !- Heating Maximum Air Flow per Zone Floor Area {m3/s-m2}
  ,                                       !- Heating Maximum Air Flow {m3/s}
  ,                                       !- Heating Maximum Air Flow Fraction
  ,                                       !- Design Zone Air Distribution Effectiveness in Cooling Mode
  ,                                       !- Design Zone Air Distribution Effectiveness in Heating Mode
  No,                                     !- Account for Dedicated Outdoor Air System
  NeutralSupplyAir,                       !- Dedicated Outdoor Air System Control Strategy
  autosize,                               !- Dedicated Outdoor Air Low Setpoint Temperature for Design {C}
  autosize;                               !- Dedicated Outdoor Air High Setpoint Temperature for Design {C}

OS:ZoneHVAC:EquipmentList,
  {b812baf0-1f64-4ed0-825f-5d893c4ff41f}, !- Handle
  Zone HVAC Equipment List 1,             !- Name
  {340dd57e-e5e2-457f-88e9-ffc250f356f9}, !- Thermal Zone
  SequentialLoad,                         !- Load Distribution Scheme
  {52dc2604-6b40-4145-939d-41f633aa044b}, !- Zone Equipment 1
  1,                                      !- Zone Equipment Cooling Sequence 1
  1,                                      !- Zone Equipment Heating or No-Load Sequence 1
  ,                                       !- Zone Equipment Sequential Cooling Fraction 1
  ,                                       !- Zone Equipment Sequential Heating Fraction 1
  {94a7875b-52c5-42ce-ae88-a76907933b4a}, !- Zone Equipment 2
  2,                                      !- Zone Equipment Cooling Sequence 2
  2,                                      !- Zone Equipment Heating or No-Load Sequence 2
  ,                                       !- Zone Equipment Sequential Cooling Fraction 2
  ;                                       !- Zone Equipment Sequential Heating Fraction 2

OS:ThermalZone,
  {622f373d-bde4-4565-8ff1-995e9c84cfb3}, !- Handle
  garage zone,                            !- Name
  ,                                       !- Multiplier
  ,                                       !- Ceiling Height {m}
  ,                                       !- Volume {m3}
  ,                                       !- Floor Area {m2}
  ,                                       !- Zone Inside Convection Algorithm
  ,                                       !- Zone Outside Convection Algorithm
  ,                                       !- Zone Conditioning Equipment List Name
  {764fbee9-b9ff-4625-87c5-a7f2f9e9e5f3}, !- Zone Air Inlet Port List
  {d413d00d-1a22-498e-a626-637c55ede517}, !- Zone Air Exhaust Port List
  {8b892cb9-7670-4a73-ad1e-45667c46ca6a}, !- Zone Air Node Name
  {5fb0fa46-791d-42c1-bfa6-e76d159e3623}, !- Zone Return Air Port List
  ,                                       !- Primary Daylighting Control Name
  ,                                       !- Fraction of Zone Controlled by Primary Daylighting Control
  ,                                       !- Secondary Daylighting Control Name
  ,                                       !- Fraction of Zone Controlled by Secondary Daylighting Control
  ,                                       !- Illuminance Map Name
  ,                                       !- Group Rendering Name
  ,                                       !- Thermostat Name
  No;                                     !- Use Ideal Air Loads

OS:Node,
  {ebe352b5-d7ed-4714-9e8a-e766028865d6}, !- Handle
  Node 2,                                 !- Name
  {8b892cb9-7670-4a73-ad1e-45667c46ca6a}, !- Inlet Port
  ;                                       !- Outlet Port

OS:Connection,
  {8b892cb9-7670-4a73-ad1e-45667c46ca6a}, !- Handle
  {d0fd5600-a770-4436-9a5b-578084eca28d}, !- Name
  {622f373d-bde4-4565-8ff1-995e9c84cfb3}, !- Source Object
  11,                                     !- Outlet Port
  {ebe352b5-d7ed-4714-9e8a-e766028865d6}, !- Target Object
  2;                                      !- Inlet Port

OS:PortList,
  {764fbee9-b9ff-4625-87c5-a7f2f9e9e5f3}, !- Handle
  {5e034ede-ed31-40af-b4fe-68bf47f15890}, !- Name
  {622f373d-bde4-4565-8ff1-995e9c84cfb3}; !- HVAC Component

OS:PortList,
  {d413d00d-1a22-498e-a626-637c55ede517}, !- Handle
  {2fc1f899-06a6-4d27-b233-de832a729736}, !- Name
  {622f373d-bde4-4565-8ff1-995e9c84cfb3}; !- HVAC Component

OS:PortList,
  {5fb0fa46-791d-42c1-bfa6-e76d159e3623}, !- Handle
  {868a38f8-3752-4c30-a107-6308a375fe62}, !- Name
  {622f373d-bde4-4565-8ff1-995e9c84cfb3}; !- HVAC Component

OS:Sizing:Zone,
  {19ce4bce-9333-414d-af70-b736b8f4404b}, !- Handle
  {622f373d-bde4-4565-8ff1-995e9c84cfb3}, !- Zone or ZoneList Name
  SupplyAirTemperature,                   !- Zone Cooling Design Supply Air Temperature Input Method
  14,                                     !- Zone Cooling Design Supply Air Temperature {C}
  11.11,                                  !- Zone Cooling Design Supply Air Temperature Difference {deltaC}
  SupplyAirTemperature,                   !- Zone Heating Design Supply Air Temperature Input Method
  40,                                     !- Zone Heating Design Supply Air Temperature {C}
  11.11,                                  !- Zone Heating Design Supply Air Temperature Difference {deltaC}
  0.0085,                                 !- Zone Cooling Design Supply Air Humidity Ratio {kg-H2O/kg-air}
  0.008,                                  !- Zone Heating Design Supply Air Humidity Ratio {kg-H2O/kg-air}
  ,                                       !- Zone Heating Sizing Factor
  ,                                       !- Zone Cooling Sizing Factor
  DesignDay,                              !- Cooling Design Air Flow Method
  ,                                       !- Cooling Design Air Flow Rate {m3/s}
  ,                                       !- Cooling Minimum Air Flow per Zone Floor Area {m3/s-m2}
  ,                                       !- Cooling Minimum Air Flow {m3/s}
  ,                                       !- Cooling Minimum Air Flow Fraction
  DesignDay,                              !- Heating Design Air Flow Method
  ,                                       !- Heating Design Air Flow Rate {m3/s}
  ,                                       !- Heating Maximum Air Flow per Zone Floor Area {m3/s-m2}
  ,                                       !- Heating Maximum Air Flow {m3/s}
  ,                                       !- Heating Maximum Air Flow Fraction
  ,                                       !- Design Zone Air Distribution Effectiveness in Cooling Mode
  ,                                       !- Design Zone Air Distribution Effectiveness in Heating Mode
  No,                                     !- Account for Dedicated Outdoor Air System
  NeutralSupplyAir,                       !- Dedicated Outdoor Air System Control Strategy
  autosize,                               !- Dedicated Outdoor Air Low Setpoint Temperature for Design {C}
  autosize;                               !- Dedicated Outdoor Air High Setpoint Temperature for Design {C}

OS:ZoneHVAC:EquipmentList,
  {da75027e-348d-41aa-bf78-6464f4a15395}, !- Handle
  Zone HVAC Equipment List 2,             !- Name
  {622f373d-bde4-4565-8ff1-995e9c84cfb3}; !- Thermal Zone

OS:Space,
  {7fda23de-ac95-4dda-b1df-67d8631faa51}, !- Handle
  garage space,                           !- Name
  {dd905454-7b9e-4048-8192-3a15eb932265}, !- Space Type Name
  ,                                       !- Default Construction Set Name
  ,                                       !- Default Schedule Set Name
  -0,                                     !- Direction of Relative North {deg}
  0,                                      !- X Origin {m}
  0,                                      !- Y Origin {m}
  0,                                      !- Z Origin {m}
  ,                                       !- Building Story Name
  {622f373d-bde4-4565-8ff1-995e9c84cfb3}; !- Thermal Zone Name

OS:Surface,
  {deb70eb9-404c-41cc-b06a-c5f325a784a2}, !- Handle
  Surface 1,                              !- Name
  Floor,                                  !- Surface Type
  {7268d68f-d116-4c8c-85d4-449d38e88577}, !- Construction Name
  {7fda23de-ac95-4dda-b1df-67d8631faa51}, !- Space Name
  Foundation,                             !- Outside Boundary Condition
  {b92f9947-3782-4099-99d2-eab971dcf738}, !- Outside Boundary Condition Object
  NoSun,                                  !- Sun Exposure
  NoWind,                                 !- Wind Exposure
  ,                                       !- View Factor to Ground
  ,                                       !- Number of Vertices
  16.3508427172132, -3.6576, 0,           !- X,Y,Z Vertex 1 {m}
  16.3508427172132, 3.6576, 0,            !- X,Y,Z Vertex 2 {m}
  20.0084427172132, 3.6576, 0,            !- X,Y,Z Vertex 3 {m}
  20.0084427172132, -3.6576, 0;           !- X,Y,Z Vertex 4 {m}

OS:Surface,
  {21247c8f-f530-4059-a437-e800cb8116f1}, !- Handle
  Surface 2,                              !- Name
  Wall,                                   !- Surface Type
  {b9fee46f-5469-42fe-a7e6-21f3f4d70a1e}, !- Construction Name
  {7fda23de-ac95-4dda-b1df-67d8631faa51}, !- Space Name
  Surface,                                !- Outside Boundary Condition
  {60871b55-4927-4b28-98b9-cf6812c72858}, !- Outside Boundary Condition Object
  NoSun,                                  !- Sun Exposure
  NoWind,                                 !- Wind Exposure
  ,                                       !- View Factor to Ground
  ,                                       !- Number of Vertices
  16.3508427172132, 3.6576, 2.4384,       !- X,Y,Z Vertex 1 {m}
  16.3508427172132, 3.6576, 0,            !- X,Y,Z Vertex 2 {m}
  16.3508427172132, 0, 0,                 !- X,Y,Z Vertex 3 {m}
  16.3508427172132, 0, 2.4384;            !- X,Y,Z Vertex 4 {m}

OS:Surface,
  {3d17ffc2-90a4-4a6c-8743-ef775525b3ff}, !- Handle
  Surface 3,                              !- Name
  Wall,                                   !- Surface Type
  {b9fee46f-5469-42fe-a7e6-21f3f4d70a1e}, !- Construction Name
  {7fda23de-ac95-4dda-b1df-67d8631faa51}, !- Space Name
  Surface,                                !- Outside Boundary Condition
  {255ff7a9-b401-458d-ba1b-0c1d919dcc22}, !- Outside Boundary Condition Object
  NoSun,                                  !- Sun Exposure
  NoWind,                                 !- Wind Exposure
  ,                                       !- View Factor to Ground
  ,                                       !- Number of Vertices
  20.0084427172132, 3.6576, 2.4384,       !- X,Y,Z Vertex 1 {m}
  20.0084427172132, 3.6576, 0,            !- X,Y,Z Vertex 2 {m}
  16.3508427172132, 3.6576, 0,            !- X,Y,Z Vertex 3 {m}
  16.3508427172132, 3.6576, 2.4384;       !- X,Y,Z Vertex 4 {m}

OS:Surface,
  {73646373-3138-48ed-b199-24b7a242a5f3}, !- Handle
  Surface 4,                              !- Name
  Wall,                                   !- Surface Type
  {659a7d58-1897-4ee8-baf0-a41293421dc6}, !- Construction Name
  {7fda23de-ac95-4dda-b1df-67d8631faa51}, !- Space Name
  Outdoors,                               !- Outside Boundary Condition
  ,                                       !- Outside Boundary Condition Object
  SunExposed,                             !- Sun Exposure
  WindExposed,                            !- Wind Exposure
  ,                                       !- View Factor to Ground
  ,                                       !- Number of Vertices
  20.0084427172132, -3.6576, 2.4384,      !- X,Y,Z Vertex 1 {m}
  20.0084427172132, -3.6576, 0,           !- X,Y,Z Vertex 2 {m}
  20.0084427172132, 3.6576, 0,            !- X,Y,Z Vertex 3 {m}
  20.0084427172132, 3.6576, 2.4384;       !- X,Y,Z Vertex 4 {m}

OS:Surface,