!- NOTE: Auto-generated from /test/osw_files/SFD_Successful_EnergyPlus_Run_AMY_PV_TwoDays.osw

OS:Version,
  {a849499e-e87c-464b-87af-89d103cd5431}, !- Handle
  2.9.0;                                  !- Version Identifier

OS:SimulationControl,
  {a4879b10-3005-4c4a-aaf1-0d850c89208d}, !- Handle
  ,                                       !- Do Zone Sizing Calculation
  ,                                       !- Do System Sizing Calculation
  ,                                       !- Do Plant Sizing Calculation
  No;                                     !- Run Simulation for Sizing Periods

OS:Timestep,
  {9317fcc9-962e-4091-9978-d864e8f01648}, !- Handle
  6;                                      !- Number of Timesteps per Hour

OS:ShadowCalculation,
  {bc83be0e-7c15-4b7c-a77e-afe643971695}, !- Handle
  20,                                     !- Calculation Frequency
  200;                                    !- Maximum Figures in Shadow Overlap Calculations

OS:SurfaceConvectionAlgorithm:Outside,
  {728f5a82-d28f-4a0f-80d1-86f59119316b}, !- Handle
  DOE-2;                                  !- Algorithm

OS:SurfaceConvectionAlgorithm:Inside,
  {d7182233-091d-4df1-9bc1-2cf7820d2a6d}, !- Handle
  TARP;                                   !- Algorithm

OS:ZoneCapacitanceMultiplier:ResearchSpecial,
  {48c32215-84a5-4b7f-b64c-a91b168990ca}, !- Handle
  ,                                       !- Temperature Capacity Multiplier
  15,                                     !- Humidity Capacity Multiplier
  ;                                       !- Carbon Dioxide Capacity Multiplier

OS:RunPeriod,
  {e2960190-4833-40ce-8edf-f771e84484e8}, !- Handle
  Run Period 1,                           !- Name
  1,                                      !- Begin Month
  23,                                     !- Begin Day of Month
  1,                                      !- End Month
  24,                                     !- End Day of Month
  ,                                       !- Use Weather File Holidays and Special Days
  ,                                       !- Use Weather File Daylight Saving Period
  ,                                       !- Apply Weekend Holiday Rule
  ,                                       !- Use Weather File Rain Indicators
  ,                                       !- Use Weather File Snow Indicators
  ;                                       !- Number of Times Runperiod to be Repeated

OS:YearDescription,
  {6ba33d0a-b3e3-4aba-8241-b19752d5f02b}, !- Handle
  2014,                                   !- Calendar Year
  ,                                       !- Day of Week for Start Day
  ;                                       !- Is Leap Year

OS:WeatherFile,
  {4d3c6443-c7a2-41fe-8623-6f64b78038fb}, !- Handle
  Boulder,                                !- City
  CO,                                     !- State Province Region
  US,                                     !- Country
  NSRDB 2.0.1 2014 AMY,                   !- Data Source
  0-20000-0-72469,                        !- WMO Number
  40.13,                                  !- Latitude {deg}
  -105.22,                                !- Longitude {deg}
  -7,                                     !- Time Zone {hr}
  1615.5,                                 !- Elevation {m}
  file:../weather/0465925_US_CO_Boulder_8013_0-20000-0-72469_40.13_-105.22_NSRDB_2.0.1_AMY_2014.epw, !- Url
  A63910BF;                               !- Checksum

OS:AdditionalProperties,
  {f027b6cc-888d-463b-af48-8497b6e46463}, !- Handle
  {4d3c6443-c7a2-41fe-8623-6f64b78038fb}, !- Object Name
  EPWHeaderCity,                          !- Feature Name 1
  String,                                 !- Feature Data Type 1
  Boulder,                                !- Feature Value 1
  EPWHeaderState,                         !- Feature Name 2
  String,                                 !- Feature Data Type 2
  CO,                                     !- Feature Value 2
  EPWHeaderCountry,                       !- Feature Name 3
  String,                                 !- Feature Data Type 3
  US,                                     !- Feature Value 3
  EPWHeaderDataSource,                    !- Feature Name 4
  String,                                 !- Feature Data Type 4
  NSRDB 2.0.1 2014 AMY,                   !- Feature Value 4
  EPWHeaderStation,                       !- Feature Name 5
  String,                                 !- Feature Data Type 5
  0-20000-0-72469,                        !- Feature Value 5
  EPWHeaderLatitude,                      !- Feature Name 6
  Double,                                 !- Feature Data Type 6
  40.130000000000003,                     !- Feature Value 6
  EPWHeaderLongitude,                     !- Feature Name 7
  Double,                                 !- Feature Data Type 7
  -105.22,                                !- Feature Value 7
  EPWHeaderTimezone,                      !- Feature Name 8
  Double,                                 !- Feature Data Type 8
  -7,                                     !- Feature Value 8
  EPWHeaderAltitude,                      !- Feature Name 9
  Double,                                 !- Feature Data Type 9
  5300.1968503937005,                     !- Feature Value 9
  EPWHeaderLocalPressure,                 !- Feature Name 10
  Double,                                 !- Feature Data Type 10
  0.82279578489595584,                    !- Feature Value 10
  EPWHeaderRecordsPerHour,                !- Feature Name 11
  Double,                                 !- Feature Data Type 11
  1,                                      !- Feature Value 11
  EPWDataAnnualAvgDrybulb,                !- Feature Name 12
  Double,                                 !- Feature Data Type 12
  46.153876712328739,                     !- Feature Value 12
  EPWDataAnnualMinDrybulb,                !- Feature Name 13
  Double,                                 !- Feature Data Type 13
  -8.3200000000000003,                    !- Feature Value 13
  EPWDataAnnualMaxDrybulb,                !- Feature Name 14
  Double,                                 !- Feature Data Type 14
  94.819999999999993,                     !- Feature Value 14
  EPWDataCDD50F,                          !- Feature Name 15
  Double,                                 !- Feature Data Type 15
  2020.8374999999992,                     !- Feature Value 15
  EPWDataCDD65F,                          !- Feature Name 16
  Double,                                 !- Feature Data Type 16
  257.56500000000011,                     !- Feature Value 16
  EPWDataHDD50F,                          !- Feature Name 17
  Double,                                 !- Feature Data Type 17
  3424.6724999999997,                     !- Feature Value 17
  EPWDataHDD65F,                          !- Feature Name 18
  Double,                                 !- Feature Data Type 18
  7136.400000000006,                      !- Feature Value 18
  EPWDataAnnualAvgWindspeed,              !- Feature Name 19
  Double,                                 !- Feature Data Type 19
  3.2218264840182589,                     !- Feature Value 19
  EPWDataMonthlyAvgDrybulbs,              !- Feature Name 20
  String,                                 !- Feature Data Type 20
  26.308951612903222&#4428.098928571428576&#4435.44443548387097&#4442.68825000000001&#4451.39161290322581&#4462.69400000000002&#4468.69677419354842&#4464.85846774193544&#4460.864999999999995&#4450.01451612903226&#4433.357&#4428.16483870967742, !- Feature Value 20
  EPWDataGroundMonthlyTemps,              !- Feature Name 21
  String,                                 !- Feature Data Type 21
  38.52739411432134&#4435.285469995369624&#4435.025845085692424&#4436.56430373078814&#4442.74035789429769&#4448.88764137749348&#4454.217007620475954&#4457.59303006231386&#4457.87984171192119&#4455.134014887414594&#4449.940550612577795&#4443.98184074832068, !- Feature Value 21
  EPWDataWSF,                             !- Feature Name 22
  Double,                                 !- Feature Data Type 22
  0.55793636363636512,                    !- Feature Value 22
  EPWDataMonthlyAvgDailyHighDrybulbs,     !- Feature Name 23
  String,                                 !- Feature Data Type 23
  37.034193548387094&#4439.82357142857143&#4449.134838709677425&#4456.798&#4465.19548387096775&#4479.982&#4483.56129032258065&#4478.8&#4476.80199999999999&#4465.96774193548387&#4446.268&#4439.14193548387097, !- Feature Value 23
  EPWDataMonthlyAvgDailyLowDrybulbs,      !- Feature Name 24
  String,                                 !- Feature Data Type 24
  17.68709677419355&#4418.500000000000007&#4424.858064516129033&#4429.858&#4437.61483870967742&#4446.808&#4455.278064516129035&#4452.81032258064516&#4447.798&#4438.46258064516129&#4423.336&#4420.64258064516129, !- Feature Value 24
  EPWDesignHeatingDrybulb,                !- Feature Name 25
  Double,                                 !- Feature Data Type 25
  2.8399999999999999,                     !- Feature Value 25
  EPWDesignHeatingWindspeed,              !- Feature Name 26
  Double,                                 !- Feature Data Type 26
  2.8645161290322578,                     !- Feature Value 26
  EPWDesignCoolingDrybulb,                !- Feature Name 27
  Double,                                 !- Feature Data Type 27
  87.439999999999998,                     !- Feature Value 27
  EPWDesignCoolingWetbulb,                !- Feature Name 28
  Double,                                 !- Feature Data Type 28
  58.634821912138641,                     !- Feature Value 28
  EPWDesignCoolingHumidityRatio,          !- Feature Name 29
  Double,                                 !- Feature Data Type 29
  0.0059863200317437151,                  !- Feature Value 29
  EPWDesignCoolingWindspeed,              !- Feature Name 30
  Double,                                 !- Feature Data Type 30
  1.9312499999999999,                     !- Feature Value 30
  EPWDesignDailyTemperatureRange,         !- Feature Name 31
  Double,                                 !- Feature Data Type 31
  25.989677419354834,                     !- Feature Value 31
  EPWDesignDehumidDrybulb,                !- Feature Name 32
  Double,                                 !- Feature Data Type 32
  64.679252336448599,                     !- Feature Value 32
  EPWDesignDehumidHumidityRatio,          !- Feature Name 33
  Double,                                 !- Feature Data Type 33
  0.010292782366117819,                   !- Feature Value 33
  EPWDesignCoolingDirectNormal,           !- Feature Name 34
  Double,                                 !- Feature Data Type 34
  1016,                                   !- Feature Value 34
  EPWDesignCoolingDiffuseHorizontal,      !- Feature Name 35
  Double,                                 !- Feature Data Type 35
  96;                                     !- Feature Value 35

OS:Site,
  {a0550409-46df-4c17-887c-45b92b43c7e3}, !- Handle
  Boulder_CO_US,                          !- Name
  40.13,                                  !- Latitude {deg}
  -105.22,                                !- Longitude {deg}
  -7,                                     !- Time Zone {hr}
  1615.5,                                 !- Elevation {m}
  Suburbs;                                !- Terrain

OS:Site:WaterMainsTemperature,
  {85a8c6ee-4089-4873-83ad-74d241d18354}, !- Handle
  Correlation,                            !- Calculation Method
  ,                                       !- Temperature Schedule Name
  7.86326484018263,                       !- Annual Average Outdoor Air Temperature {C}
  23.5487903225807;                       !- Maximum Difference In Monthly Average Outdoor Air Temperatures {deltaC}

OS:RunPeriodControl:DaylightSavingTime,
  {7c8eaa67-0f65-4b81-94d0-bf81cebf13c6}, !- Handle
  4/7,                                    !- Start Date
  10/26;                                  !- End Date

OS:Site:GroundTemperature:Deep,
  {3244c2d0-6d81-4482-8083-23411960ebac}, !- Handle
  7.86326484018263,                       !- January Deep Ground Temperature {C}
  7.86326484018263,                       !- February Deep Ground Temperature {C}
  7.86326484018263,                       !- March Deep Ground Temperature {C}
  7.86326484018263,                       !- April Deep Ground Temperature {C}
  7.86326484018263,                       !- May Deep Ground Temperature {C}
  7.86326484018263,                       !- June Deep Ground Temperature {C}
  7.86326484018263,                       !- July Deep Ground Temperature {C}
  7.86326484018263,                       !- August Deep Ground Temperature {C}
  7.86326484018263,                       !- September Deep Ground Temperature {C}
  7.86326484018263,                       !- October Deep Ground Temperature {C}
  7.86326484018263,                       !- November Deep Ground Temperature {C}
  7.86326484018263;                       !- December Deep Ground Temperature {C}

OS:Building,
  {cf876105-68df-424f-9b7f-a63c36fc4b01}, !- Handle
  Building 1,                             !- Name
  ,                                       !- Building Sector Type
  22.5,                                   !- North Axis {deg}
  ,                                       !- Nominal Floor to Floor Height {m}
  ,                                       !- Space Type Name
  ,                                       !- Default Construction Set Name
  ,                                       !- Default Schedule Set Name
  2,                                      !- Standards Number of Stories
  2,                                      !- Standards Number of Above Ground Stories
  ,                                       !- Standards Template
  singlefamilydetached,                   !- Standards Building Type
  1;                                      !- Standards Number of Living Units

OS:AdditionalProperties,
  {e3eb871c-0121-4a94-a8c9-548548b0f05e}, !- Handle
  {cf876105-68df-424f-9b7f-a63c36fc4b01}, !- Object Name
  Total Units Modeled,                    !- Feature Name 1
  Integer,                                !- Feature Data Type 1
  1,                                      !- Feature Value 1
  has_water_heater_flue,                  !- Feature Name 2
  Boolean,                                !- Feature Data Type 2
  true,                                   !- Feature Value 2
  has_hvac_flue,                          !- Feature Name 3
  Boolean,                                !- Feature Data Type 3
  true;                                   !- Feature Value 3

OS:ThermalZone,
  {d1ad67e7-4a47-426a-be9e-551a0731c89a}, !- Handle
  living zone,                            !- Name
  ,                                       !- Multiplier
  ,                                       !- Ceiling Height {m}
  ,                                       !- Volume {m3}
  ,                                       !- Floor Area {m2}
  ,                                       !- Zone Inside Convection Algorithm
  ,                                       !- Zone Outside Convection Algorithm
  ,                                       !- Zone Conditioning Equipment List Name
  {3406fcbd-b5ba-4553-8df0-a05eb905ed5b}, !- Zone Air Inlet Port List
  {9ca80bb1-0a3e-48ed-878c-cfac935aa824}, !- Zone Air Exhaust Port List
  {71bd6cac-eff4-4dca-b04b-d36711367866}, !- Zone Air Node Name
  {85e790fe-08ba-4dc3-aa79-dba22fefba34}, !- Zone Return Air Port List
  ,                                       !- Primary Daylighting Control Name
  ,                                       !- Fraction of Zone Controlled by Primary Daylighting Control
  ,                                       !- Secondary Daylighting Control Name
  ,                                       !- Fraction of Zone Controlled by Secondary Daylighting Control
  ,                                       !- Illuminance Map Name
  ,                                       !- Group Rendering Name
  {9a414203-bbd6-45bf-9ab1-d65b2804b1e2}, !- Thermostat Name
  No;                                     !- Use Ideal Air Loads

OS:Node,
  {e108ff9f-52f4-4b15-b5ed-8b3c1a1a6e65}, !- Handle
  Node 1,                                 !- Name
  {71bd6cac-eff4-4dca-b04b-d36711367866}, !- Inlet Port
  ;                                       !- Outlet Port

OS:Connection,
  {71bd6cac-eff4-4dca-b04b-d36711367866}, !- Handle
  {d45865dc-e677-453b-ab2a-3bad7ecce7fa}, !- Name
  {d1ad67e7-4a47-426a-be9e-551a0731c89a}, !- Source Object
  11,                                     !- Outlet Port
  {e108ff9f-52f4-4b15-b5ed-8b3c1a1a6e65}, !- Target Object
  2;                                      !- Inlet Port

OS:PortList,
  {3406fcbd-b5ba-4553-8df0-a05eb905ed5b}, !- Handle
  {75aff559-beb0-47f9-93c0-e469c3097423}, !- Name
  {d1ad67e7-4a47-426a-be9e-551a0731c89a}, !- HVAC Component
  {a61b7afc-f9fe-4b89-aace-5f2c873ac85e}, !- Port 1
  {a14bdede-f4b2-476a-92cf-1763b53215ff}; !- Port 2

OS:PortList,
  {9ca80bb1-0a3e-48ed-878c-cfac935aa824}, !- Handle
  {7de6c86b-9c96-43a9-8e7c-78f8d745cda4}, !- Name
  {d1ad67e7-4a47-426a-be9e-551a0731c89a}; !- HVAC Component

OS:PortList,
  {85e790fe-08ba-4dc3-aa79-dba22fefba34}, !- Handle
  {2f15818d-4605-46e6-94d9-dddde7cc1476}, !- Name
  {d1ad67e7-4a47-426a-be9e-551a0731c89a}, !- HVAC Component
  {c906daac-2ff8-4823-8bf5-52c4f2392779}, !- Port 1
  {1e8fd34e-18e1-48b9-bd47-f40fcb970f70}; !- Port 2

OS:Sizing:Zone,
  {2f5aa876-db8e-4977-acab-c3f4fe396361}, !- Handle
  {d1ad67e7-4a47-426a-be9e-551a0731c89a}, !- Zone or ZoneList Name
  SupplyAirTemperature,                   !- Zone Cooling Design Supply Air Temperature Input Method
  14,                                     !- Zone Cooling Design Supply Air Temperature {C}
  11.11,                                  !- Zone Cooling Design Supply Air Temperature Difference {deltaC}
  SupplyAirTemperature,                   !- Zone Heating Design Supply Air Temperature Input Method
  40,                                     !- Zone Heating Design Supply Air Temperature {C}
  11.11,                                  !- Zone Heating Design Supply Air Temperature Difference {deltaC}
  0.0085,                                 !- Zone Cooling Design Supply Air Humidity Ratio {kg-H2O/kg-air}
  0.008,                                  !- Zone Heating Design Supply Air Humidity Ratio {kg-H2O/kg-air}
  ,                                       !- Zone Heating Sizing Factor
  ,                                       !- Zone Cooling Sizing Factor
  DesignDay,                              !- Cooling Design Air Flow Method
  ,                                       !- Cooling Design Air Flow Rate {m3/s}
  ,                                       !- Cooling Minimum Air Flow per Zone Floor Area {m3/s-m2}
  ,                                       !- Cooling Minimum Air Flow {m3/s}
  ,                                       !- Cooling Minimum Air Flow Fraction
  DesignDay,                              !- Heating Design Air Flow Method
  ,                                       !- Heating Design Air Flow Rate {m3/s}
  ,                                       !- Heating Maximum Air Flow per Zone Floor Area {m3/s-m2}
  ,                                       !- Heating Maximum Air Flow {m3/s}
  ,                                       !- Heating Maximum Air Flow Fraction
  ,                                       !- Design Zone Air Distribution Effectiveness in Cooling Mode
  ,                                       !- Design Zone Air Distribution Effectiveness in Heating Mode
  No,                                     !- Account for Dedicated Outdoor Air System
  NeutralSupplyAir,                       !- Dedicated Outdoor Air System Control Strategy
  autosize,                               !- Dedicated Outdoor Air Low Setpoint Temperature for Design {C}
  autosize;                               !- Dedicated Outdoor Air High Setpoint Temperature for Design {C}

OS:ZoneHVAC:EquipmentList,
  {ce6d9506-c83f-42ff-8e2a-4f97f3760b23}, !- Handle
  Zone HVAC Equipment List 1,             !- Name
  {d1ad67e7-4a47-426a-be9e-551a0731c89a}, !- Thermal Zone
  SequentialLoad,                         !- Load Distribution Scheme
  {25d7c73b-742a-47c2-ac7f-50035a034441}, !- Zone Equipment 1
  1,                                      !- Zone Equipment Cooling Sequence 1
  1,                                      !- Zone Equipment Heating or No-Load Sequence 1
  ,                                       !- Zone Equipment Sequential Cooling Fraction Schedule Name 1
  ,                                       !- Zone Equipment Sequential Heating Fraction Schedule Name 1
  {8946e15a-c0c5-41fb-a2ff-a19471990c10}, !- Zone Equipment 2
  2,                                      !- Zone Equipment Cooling Sequence 2
  2,                                      !- Zone Equipment Heating or No-Load Sequence 2
  ,                                       !- Zone Equipment Sequential Cooling Fraction Schedule Name 2
  ;                                       !- Zone Equipment Sequential Heating Fraction Schedule Name 2

OS:Space,
  {4695e4e1-4c94-4cd6-94ed-277462abec76}, !- Handle
  living space,                           !- Name
  {641e6ada-d8c0-4c0a-9542-38ddae6c8128}, !- Space Type Name
  ,                                       !- Default Construction Set Name
  ,                                       !- Default Schedule Set Name
  -0,                                     !- Direction of Relative North {deg}
  0,                                      !- X Origin {m}
  0,                                      !- Y Origin {m}
  0,                                      !- Z Origin {m}
  ,                                       !- Building Story Name
  {d1ad67e7-4a47-426a-be9e-551a0731c89a}, !- Thermal Zone Name
  ,                                       !- Part of Total Floor Area
  ,                                       !- Design Specification Outdoor Air Object Name
  {c1c031c2-1c6c-46cb-a256-bc92601a44ec}; !- Building Unit Name

OS:Surface,
  {ebacbf6b-d198-4a29-b0b9-9a9bd5bb621c}, !- Handle
  Surface 1,                              !- Name
  Floor,                                  !- Surface Type
  {b7fb7539-eb84-4996-be1f-24658c8dedfa}, !- Construction Name
  {4695e4e1-4c94-4cd6-94ed-277462abec76}, !- Space Name
  Foundation,                             !- Outside Boundary Condition
  {5f0b13f9-2681-44c9-b1f8-4c35fbf59a34}, !- Outside Boundary Condition Object
  NoSun,                                  !- Sun Exposure
  NoWind,                                 !- Wind Exposure
  ,                                       !- View Factor to Ground
  ,                                       !- Number of Vertices
  0, 0, 0,                                !- X,Y,Z Vertex 1 {m}
  0, 1.524, 0,                            !- X,Y,Z Vertex 2 {m}
  3.048, 1.524, 0,                        !- X,Y,Z Vertex 3 {m}
  3.048, 0, 0;                            !- X,Y,Z Vertex 4 {m}

OS:Surface,
  {0a4a063c-bb63-418e-867d-2fff7205a2ca}, !- Handle
  Surface 2,                              !- Name
  Wall,                                   !- Surface Type
  {660bc738-3938-499f-b4ed-073a7adc6c86}, !- Construction Name
  {4695e4e1-4c94-4cd6-94ed-277462abec76}, !- Space Name
  Outdoors,                               !- Outside Boundary Condition
  ,                                       !- Outside Boundary Condition Object
  SunExposed,                             !- Sun Exposure
  WindExposed,                            !- Wind Exposure
  ,                                       !- View Factor to Ground
  ,                                       !- Number of Vertices
  0, 1.524, 2.4384,                       !- X,Y,Z Vertex 1 {m}
  0, 1.524, 0,                            !- X,Y,Z Vertex 2 {m}
  0, 0, 0,                                !- X,Y,Z Vertex 3 {m}
  0, 0, 2.4384;                           !- X,Y,Z Vertex 4 {m}

OS:Surface,
  {9bf28730-3a47-47d4-8329-510ad6cd93eb}, !- Handle
  Surface 3,                              !- Name
  Wall,                                   !- Surface Type
  {660bc738-3938-499f-b4ed-073a7adc6c86}, !- Construction Name
  {4695e4e1-4c94-4cd6-94ed-277462abec76}, !- Space Name
  Outdoors,                               !- Outside Boundary Condition
  ,                                       !- Outside Boundary Condition Object
  SunExposed,                             !- Sun Exposure
  WindExposed,                            !- Wind Exposure
  ,                                       !- View Factor to Ground
  ,                                       !- Number of Vertices
  3.048, 1.524, 2.4384,                   !- X,Y,Z Vertex 1 {m}
  3.048, 1.524, 0,                        !- X,Y,Z Vertex 2 {m}
  0, 1.524, 0,                            !- X,Y,Z Vertex 3 {m}
  0, 1.524, 2.4384;                       !- X,Y,Z Vertex 4 {m}

OS:Surface,
  {b2281545-c446-4896-860e-168a30b3e0e0}, !- Handle
  Surface 4,                              !- Name
  Wall,                                   !- Surface Type
  {660bc738-3938-499f-b4ed-073a7adc6c86}, !- Construction Name
  {4695e4e1-4c94-4cd6-94ed-277462abec76}, !- Space Name
  Outdoors,                               !- Outside Boundary Condition
  ,                                       !- Outside Boundary Condition Object
  SunExposed,                             !- Sun Exposure
  WindExposed,                            !- Wind Exposure
  ,                                       !- View Factor to Ground
  ,                                       !- Number of Vertices
  3.048, 0, 2.4384,                       !- X,Y,Z Vertex 1 {m}
  3.048, 0, 0,                            !- X,Y,Z Vertex 2 {m}
  3.048, 1.524, 0,                        !- X,Y,Z Vertex 3 {m}
  3.048, 1.524, 2.4384;                   !- X,Y,Z Vertex 4 {m}

OS:Surface,
  {9ac6e537-293e-4fe0-9b81-9241532a9993}, !- Handle
  Surface 5,                              !- Name
  Wall,                                   !- Surface Type
  {660bc738-3938-499f-b4ed-073a7adc6c86}, !- Construction Name
  {4695e4e1-4c94-4cd6-94ed-277462abec76}, !- Space Name
  Outdoors,                               !- Outside Boundary Condition
  ,                                       !- Outside Boundary Condition Object
  SunExposed,                             !- Sun Exposure
  WindExposed,                            !- Wind Exposure
  ,                                       !- View Factor to Ground
  ,                                       !- Number of Vertices
  3.048, 0, 0,                            !- X,Y,Z Vertex 1 {m}
  3.048, 0, 2.4384,                       !- X,Y,Z Vertex 2 {m}
  1.04865714285714, 0, 2.4384,            !- X,Y,Z Vertex 3 {m}
  1.04865714285714, 0, 0;                 !- X,Y,Z Vertex 4 {m}

OS:Surface,
  {d1153df3-1a8d-44cd-b5e8-fc77f0a18b95}, !- Handle
  Surface 6,                              !- Name
  RoofCeiling,                            !- Surface Type
  {a35ae6c5-f49a-4188-8800-dcd8444efa76}, !- Construction Name
  {4695e4e1-4c94-4cd6-94ed-277462abec76}, !- Space Name
  Surface,                                !- Outside Boundary Condition
  {9838bd37-3dac-407a-86dd-60601c5df277}, !- Outside Boundary Condition Object
  NoSun,                                  !- Sun Exposure
  NoWind,                                 !- Wind Exposure
  ,                                       !- View Factor to Ground
  ,                                       !- Number of Vertices
  3.048, 0, 2.4384,                       !- X,Y,Z Vertex 1 {m}
  3.048, 1.524, 2.4384,                   !- X,Y,Z Vertex 2 {m}
  0, 1.524, 2.4384,                       !- X,Y,Z Vertex 3 {m}
  0, 0, 2.4384;                           !- X,Y,Z Vertex 4 {m}

OS:SpaceType,
  {641e6ada-d8c0-4c0a-9542-38ddae6c8128}, !- Handle
  Space Type 1,                           !- Name
  ,                                       !- Default Construction Set Name
  ,                                       !- Default Schedule Set Name
  ,                                       !- Group Rendering Name
  ,                                       !- Design Specification Outdoor Air Object Name
  ,                                       !- Standards Template
  ,                                       !- Standards Building Type
  living;                                 !- Standards Space Type

OS:Space,
  {33f6c40b-109c-41c6-8164-a67047df5170}, !- Handle
  living space|story 2,                   !- Name
  {641e6ada-d8c0-4c0a-9542-38ddae6c8128}, !- Space Type Name
  ,                                       !- Default Construction Set Name
  ,                                       !- Default Schedule Set Name
  -0,                                     !- Direction of Relative North {deg}
  0,                                      !- X Origin {m}
  0,                                      !- Y Origin {m}
  2.4384,                                 !- Z Origin {m}
  ,                                       !- Building Story Name
  {d1ad67e7-4a47-426a-be9e-551a0731c89a}, !- Thermal Zone Name
  ,                                       !- Part of Total Floor Area
  ,                                       !- Design Specification Outdoor Air Object Name
  {c1c031c2-1c6c-46cb-a256-bc92601a44ec}; !- Building Unit Name

OS:Surface,
  {9838bd37-3dac-407a-86dd-60601c5df277}, !- Handle
  Surface 7,                              !- Name
  Floor,                                  !- Surface Type
  {2768a147-5115-433d-b847-0897104d019d}, !- Construction Name
  {33f6c40b-109c-41c6-8164-a67047df5170}, !- Space Name
  Surface,                                !- Outside Boundary Condition
  {d1153df3-1a8d-44cd-b5e8-fc77f0a18b95}, !- Outside Boundary Condition Object
  NoSun,                                  !- Sun Exposure
  NoWind,                                 !- Wind Exposure
  ,                                       !- View Factor to Ground
  ,                                       !- Number of Vertices
  0, 0, 0,                                !- X,Y,Z Vertex 1 {m}