!- NOTE: Auto-generated from /test/osw_files/SFD_2000sqft_2story_FB_GRG_UA_3Beds_2Baths.osw

OS:Version,
  {ef396673-a02c-46c0-800a-f0671e5d3341}, !- Handle
  2.9.1;                                  !- Version Identifier

OS:SimulationControl,
  {a758f67b-86e7-4b6d-9b91-61cb3bb98e1c}, !- Handle
  ,                                       !- Do Zone Sizing Calculation
  ,                                       !- Do System Sizing Calculation
  ,                                       !- Do Plant Sizing Calculation
  No;                                     !- Run Simulation for Sizing Periods

OS:Timestep,
  {6d5606e2-e914-4ab2-8a32-39393257f03f}, !- Handle
  6;                                      !- Number of Timesteps per Hour

OS:ShadowCalculation,
  {099a3e4e-0168-4a2d-809f-f90bfcd96fc8}, !- Handle
  20,                                     !- Calculation Frequency
  200;                                    !- Maximum Figures in Shadow Overlap Calculations

OS:SurfaceConvectionAlgorithm:Outside,
  {7826c455-cb23-4883-8a8e-a9617cb8f991}, !- Handle
  DOE-2;                                  !- Algorithm

OS:SurfaceConvectionAlgorithm:Inside,
  {db835df0-f64f-46f6-9a39-a32f5cd93047}, !- Handle
  TARP;                                   !- Algorithm

OS:ZoneCapacitanceMultiplier:ResearchSpecial,
  {9b0d0e90-8e5b-4a99-bcb4-a83c88eb3aef}, !- Handle
  ,                                       !- Temperature Capacity Multiplier
  15,                                     !- Humidity Capacity Multiplier
  ;                                       !- Carbon Dioxide Capacity Multiplier

OS:RunPeriod,
  {519d915d-044e-4c98-955c-92dcfaf85979}, !- Handle
  Run Period 1,                           !- Name
  1,                                      !- Begin Month
  1,                                      !- Begin Day of Month
  12,                                     !- End Month
  31,                                     !- End Day of Month
  ,                                       !- Use Weather File Holidays and Special Days
  ,                                       !- Use Weather File Daylight Saving Period
  ,                                       !- Apply Weekend Holiday Rule
  ,                                       !- Use Weather File Rain Indicators
  ,                                       !- Use Weather File Snow Indicators
  ;                                       !- Number of Times Runperiod to be Repeated

OS:YearDescription,
  {446642d1-8cec-41b2-ac5f-8eb0f1213fd1}, !- Handle
  2007,                                   !- Calendar Year
  ,                                       !- Day of Week for Start Day
  ;                                       !- Is Leap Year

OS:Building,
  {2ec632f3-cc6c-470f-8b4d-d560ad284766}, !- Handle
  Building 1,                             !- Name
  ,                                       !- Building Sector Type
  0,                                      !- North Axis {deg}
  ,                                       !- Nominal Floor to Floor Height {m}
  ,                                       !- Space Type Name
  ,                                       !- Default Construction Set Name
  ,                                       !- Default Schedule Set Name
  3,                                      !- Standards Number of Stories
  2,                                      !- Standards Number of Above Ground Stories
  ,                                       !- Standards Template
  singlefamilydetached,                   !- Standards Building Type
  1;                                      !- Standards Number of Living Units

OS:AdditionalProperties,
  {61490e22-2509-4a68-aa60-9469ea3c8100}, !- Handle
  {2ec632f3-cc6c-470f-8b4d-d560ad284766}, !- Object Name
  Total Units Modeled,                    !- Feature Name 1
  Integer,                                !- Feature Data Type 1
  1;                                      !- Feature Value 1

OS:ThermalZone,
  {852ee998-8624-4563-9634-f2066c268856}, !- Handle
  living zone,                            !- Name
  ,                                       !- Multiplier
  ,                                       !- Ceiling Height {m}
  ,                                       !- Volume {m3}
  ,                                       !- Floor Area {m2}
  ,                                       !- Zone Inside Convection Algorithm
  ,                                       !- Zone Outside Convection Algorithm
  ,                                       !- Zone Conditioning Equipment List Name
  {faa6ea62-d7f8-41fd-8192-15a25b374aac}, !- Zone Air Inlet Port List
  {9e64e950-5cf2-4def-8a5e-1e08e98cf16e}, !- Zone Air Exhaust Port List
  {5b3802cf-84b7-4f5a-99ed-c562847e5e5c}, !- Zone Air Node Name
  {d23949c1-8846-4a23-861f-6c247f7f8201}, !- Zone Return Air Port List
  ,                                       !- Primary Daylighting Control Name
  ,                                       !- Fraction of Zone Controlled by Primary Daylighting Control
  ,                                       !- Secondary Daylighting Control Name
  ,                                       !- Fraction of Zone Controlled by Secondary Daylighting Control
  ,                                       !- Illuminance Map Name
  ,                                       !- Group Rendering Name
  ,                                       !- Thermostat Name
  No;                                     !- Use Ideal Air Loads

OS:Node,
  {3913d1eb-cafc-48e5-82b5-82534ff7b4ef}, !- Handle
  Node 1,                                 !- Name
  {5b3802cf-84b7-4f5a-99ed-c562847e5e5c}, !- Inlet Port
  ;                                       !- Outlet Port

OS:Connection,
  {5b3802cf-84b7-4f5a-99ed-c562847e5e5c}, !- Handle
  {d1e9ea52-5035-46f1-b1b3-05a655177e5b}, !- Name
  {852ee998-8624-4563-9634-f2066c268856}, !- Source Object
  11,                                     !- Outlet Port
  {3913d1eb-cafc-48e5-82b5-82534ff7b4ef}, !- Target Object
  2;                                      !- Inlet Port

OS:PortList,
  {faa6ea62-d7f8-41fd-8192-15a25b374aac}, !- Handle
  {a0e703e1-58ce-4236-bf1e-dc4f1b3b4e51}, !- Name
  {852ee998-8624-4563-9634-f2066c268856}; !- HVAC Component

OS:PortList,
  {9e64e950-5cf2-4def-8a5e-1e08e98cf16e}, !- Handle
  {4abdc090-7ac2-49ca-ab06-727056404187}, !- Name
  {852ee998-8624-4563-9634-f2066c268856}; !- HVAC Component

OS:PortList,
  {d23949c1-8846-4a23-861f-6c247f7f8201}, !- Handle
  {9d3e2ec3-b9a2-439f-9572-df3d991d6287}, !- Name
  {852ee998-8624-4563-9634-f2066c268856}; !- HVAC Component

OS:Sizing:Zone,
  {be573d3e-def1-468a-a6fe-5b0bc081462b}, !- Handle
  {852ee998-8624-4563-9634-f2066c268856}, !- Zone or ZoneList Name
  SupplyAirTemperature,                   !- Zone Cooling Design Supply Air Temperature Input Method
  14,                                     !- Zone Cooling Design Supply Air Temperature {C}
  11.11,                                  !- Zone Cooling Design Supply Air Temperature Difference {deltaC}
  SupplyAirTemperature,                   !- Zone Heating Design Supply Air Temperature Input Method
  40,                                     !- Zone Heating Design Supply Air Temperature {C}
  11.11,                                  !- Zone Heating Design Supply Air Temperature Difference {deltaC}
  0.0085,                                 !- Zone Cooling Design Supply Air Humidity Ratio {kg-H2O/kg-air}
  0.008,                                  !- Zone Heating Design Supply Air Humidity Ratio {kg-H2O/kg-air}
  ,                                       !- Zone Heating Sizing Factor
  ,                                       !- Zone Cooling Sizing Factor
  DesignDay,                              !- Cooling Design Air Flow Method
  ,                                       !- Cooling Design Air Flow Rate {m3/s}
  ,                                       !- Cooling Minimum Air Flow per Zone Floor Area {m3/s-m2}
  ,                                       !- Cooling Minimum Air Flow {m3/s}
  ,                                       !- Cooling Minimum Air Flow Fraction
  DesignDay,                              !- Heating Design Air Flow Method
  ,                                       !- Heating Design Air Flow Rate {m3/s}
  ,                                       !- Heating Maximum Air Flow per Zone Floor Area {m3/s-m2}
  ,                                       !- Heating Maximum Air Flow {m3/s}
  ,                                       !- Heating Maximum Air Flow Fraction
  ,                                       !- Design Zone Air Distribution Effectiveness in Cooling Mode
  ,                                       !- Design Zone Air Distribution Effectiveness in Heating Mode
  No,                                     !- Account for Dedicated Outdoor Air System
  NeutralSupplyAir,                       !- Dedicated Outdoor Air System Control Strategy
  autosize,                               !- Dedicated Outdoor Air Low Setpoint Temperature for Design {C}
  autosize;                               !- Dedicated Outdoor Air High Setpoint Temperature for Design {C}

OS:ZoneHVAC:EquipmentList,
  {e0d2421e-efea-4e19-ba52-830372d1a3e5}, !- Handle
  Zone HVAC Equipment List 1,             !- Name
  {852ee998-8624-4563-9634-f2066c268856}; !- Thermal Zone

OS:ThermalZone,
  {63c94953-7abf-4424-ba5a-8c5e6b3a4733}, !- Handle
  garage zone,                            !- Name
  ,                                       !- Multiplier
  ,                                       !- Ceiling Height {m}
  ,                                       !- Volume {m3}
  ,                                       !- Floor Area {m2}
  ,                                       !- Zone Inside Convection Algorithm
  ,                                       !- Zone Outside Convection Algorithm
  ,                                       !- Zone Conditioning Equipment List Name
  {e1525d66-67cc-44c7-b3ad-ae86c8e44a49}, !- Zone Air Inlet Port List
  {7e19bfc1-ed32-4df1-9952-f4bbadf2ba44}, !- Zone Air Exhaust Port List
  {7344f852-706a-4ead-938f-30e3fab4b659}, !- Zone Air Node Name
  {6522ec28-5bc3-46f2-8e35-fde456067dac}, !- Zone Return Air Port List
  ,                                       !- Primary Daylighting Control Name
  ,                                       !- Fraction of Zone Controlled by Primary Daylighting Control
  ,                                       !- Secondary Daylighting Control Name
  ,                                       !- Fraction of Zone Controlled by Secondary Daylighting Control
  ,                                       !- Illuminance Map Name
  ,                                       !- Group Rendering Name
  ,                                       !- Thermostat Name
  No;                                     !- Use Ideal Air Loads

OS:Node,
  {7df6136e-8ee9-4a2f-9c21-e5bf1a1f05e2}, !- Handle
  Node 2,                                 !- Name
  {7344f852-706a-4ead-938f-30e3fab4b659}, !- Inlet Port
  ;                                       !- Outlet Port

OS:Connection,
  {7344f852-706a-4ead-938f-30e3fab4b659}, !- Handle
  {36d9fc8c-6b30-4842-8151-7d4d2176f10c}, !- Name
  {63c94953-7abf-4424-ba5a-8c5e6b3a4733}, !- Source Object
  11,                                     !- Outlet Port
  {7df6136e-8ee9-4a2f-9c21-e5bf1a1f05e2}, !- Target Object
  2;                                      !- Inlet Port

OS:PortList,
  {e1525d66-67cc-44c7-b3ad-ae86c8e44a49}, !- Handle
  {d413205a-4cbe-48b3-893e-ed304ceb6916}, !- Name
  {63c94953-7abf-4424-ba5a-8c5e6b3a4733}; !- HVAC Component

OS:PortList,
  {7e19bfc1-ed32-4df1-9952-f4bbadf2ba44}, !- Handle
  {815235e5-7830-4c41-a4bc-67f1975636f3}, !- Name
  {63c94953-7abf-4424-ba5a-8c5e6b3a4733}; !- HVAC Component

OS:PortList,
  {6522ec28-5bc3-46f2-8e35-fde456067dac}, !- Handle
  {e2f0146b-49c3-4559-96f1-fc3780e42451}, !- Name
  {63c94953-7abf-4424-ba5a-8c5e6b3a4733}; !- HVAC Component

OS:Sizing:Zone,
  {810bac41-a88d-4dd4-98a0-15d2e5329d25}, !- Handle
  {63c94953-7abf-4424-ba5a-8c5e6b3a4733}, !- Zone or ZoneList Name
  SupplyAirTemperature,                   !- Zone Cooling Design Supply Air Temperature Input Method
  14,                                     !- Zone Cooling Design Supply Air Temperature {C}
  11.11,                                  !- Zone Cooling Design Supply Air Temperature Difference {deltaC}
  SupplyAirTemperature,                   !- Zone Heating Design Supply Air Temperature Input Method
  40,                                     !- Zone Heating Design Supply Air Temperature {C}
  11.11,                                  !- Zone Heating Design Supply Air Temperature Difference {deltaC}
  0.0085,                                 !- Zone Cooling Design Supply Air Humidity Ratio {kg-H2O/kg-air}
  0.008,                                  !- Zone Heating Design Supply Air Humidity Ratio {kg-H2O/kg-air}
  ,                                       !- Zone Heating Sizing Factor
  ,                                       !- Zone Cooling Sizing Factor
  DesignDay,                              !- Cooling Design Air Flow Method
  ,                                       !- Cooling Design Air Flow Rate {m3/s}
  ,                                       !- Cooling Minimum Air Flow per Zone Floor Area {m3/s-m2}
  ,                                       !- Cooling Minimum Air Flow {m3/s}
  ,                                       !- Cooling Minimum Air Flow Fraction
  DesignDay,                              !- Heating Design Air Flow Method
  ,                                       !- Heating Design Air Flow Rate {m3/s}
  ,                                       !- Heating Maximum Air Flow per Zone Floor Area {m3/s-m2}
  ,                                       !- Heating Maximum Air Flow {m3/s}
  ,                                       !- Heating Maximum Air Flow Fraction
  ,                                       !- Design Zone Air Distribution Effectiveness in Cooling Mode
  ,                                       !- Design Zone Air Distribution Effectiveness in Heating Mode
  No,                                     !- Account for Dedicated Outdoor Air System
  NeutralSupplyAir,                       !- Dedicated Outdoor Air System Control Strategy
  autosize,                               !- Dedicated Outdoor Air Low Setpoint Temperature for Design {C}
  autosize;                               !- Dedicated Outdoor Air High Setpoint Temperature for Design {C}

OS:ZoneHVAC:EquipmentList,
  {75b7ec91-ce73-44d5-88c0-ce9d57704f4b}, !- Handle
  Zone HVAC Equipment List 2,             !- Name
  {63c94953-7abf-4424-ba5a-8c5e6b3a4733}; !- Thermal Zone

OS:Space,
  {1d94ea24-7697-4d4e-80b6-d1e1254459a1}, !- Handle
  garage space,                           !- Name
  {324aca54-ed9a-4668-8e3c-6184b154c4b3}, !- Space Type Name
  ,                                       !- Default Construction Set Name
  ,                                       !- Default Schedule Set Name
  -0,                                     !- Direction of Relative North {deg}
  0,                                      !- X Origin {m}
  0,                                      !- Y Origin {m}
  0,                                      !- Z Origin {m}
  ,                                       !- Building Story Name
  {63c94953-7abf-4424-ba5a-8c5e6b3a4733}; !- Thermal Zone Name

OS:Surface,
  {2e6587fe-2b9d-44a4-86ea-771666d1a111}, !- Handle
  Surface 1,                              !- Name
  Floor,                                  !- Surface Type
  ,                                       !- Construction Name
  {1d94ea24-7697-4d4e-80b6-d1e1254459a1}, !- Space Name
  Foundation,                             !- Outside Boundary Condition
  ,                                       !- Outside Boundary Condition Object
  NoSun,                                  !- Sun Exposure
  NoWind,                                 !- Wind Exposure
  ,                                       !- View Factor to Ground
  ,                                       !- Number of Vertices
  5.57695129776527, -3.048, 0,            !- X,Y,Z Vertex 1 {m}
  5.57695129776527, 3.048, 0,             !- X,Y,Z Vertex 2 {m}
  11.6729512977653, 3.048, 0,             !- X,Y,Z Vertex 3 {m}
  11.6729512977653, -3.048, 0;            !- X,Y,Z Vertex 4 {m}

OS:Surface,
  {c856f0eb-0624-4bc2-a7e9-94503f934147}, !- Handle
  Surface 2,                              !- Name
  Wall,                                   !- Surface Type
  ,                                       !- Construction Name
  {1d94ea24-7697-4d4e-80b6-d1e1254459a1}, !- Space Name
  Surface,                                !- Outside Boundary Condition
  {d82fa7da-118e-4ae4-ac03-5ceebef7bc80}, !- Outside Boundary Condition Object
  NoSun,                                  !- Sun Exposure
  NoWind,                                 !- Wind Exposure
  ,                                       !- View Factor to Ground
  ,                                       !- Number of Vertices
  5.57695129776527, 3.048, 2.4384,        !- X,Y,Z Vertex 1 {m}
  5.57695129776527, 3.048, 0,             !- X,Y,Z Vertex 2 {m}
  5.57695129776527, 0, 0,                 !- X,Y,Z Vertex 3 {m}
  5.57695129776527, 0, 2.4384;            !- X,Y,Z Vertex 4 {m}

OS:Surface,
  {5cba65c9-e882-441e-b23b-e5ceef1b3fcf}, !- Handle
  Surface 3,                              !- Name
  Wall,                                   !- Surface Type
  ,                                       !- Construction Name
  {1d94ea24-7697-4d4e-80b6-d1e1254459a1}, !- Space Name
  Surface,                                !- Outside Boundary Condition
  {fad42761-2985-401a-be81-375cbda243b1}, !- Outside Boundary Condition Object
  NoSun,                                  !- Sun Exposure
  NoWind,                                 !- Wind Exposure
  ,                                       !- View Factor to Ground
  ,                                       !- Number of Vertices
  11.6729512977653, 3.048, 2.4384,        !- X,Y,Z Vertex 1 {m}
  11.6729512977653, 3.048, 0,             !- X,Y,Z Vertex 2 {m}
  5.57695129776527, 3.048, 0,             !- X,Y,Z Vertex 3 {m}
  5.57695129776527, 3.048, 2.4384;        !- X,Y,Z Vertex 4 {m}

OS:Surface,
  {9b385e69-db1c-404c-bba1-89e52ea2389a}, !- Handle
  Surface 4,                              !- Name
  Wall,                                   !- Surface Type
  ,                                       !- Construction Name
  {1d94ea24-7697-4d4e-80b6-d1e1254459a1}, !- Space Name
  Outdoors,                               !- Outside Boundary Condition
  ,                                       !- Outside Boundary Condition Object
  SunExposed,                             !- Sun Exposure
  WindExposed,                            !- Wind Exposure
  ,                                       !- View Factor to Ground
  ,                                       !- Number of Vertices
  11.6729512977653, -3.048, 2.4384,       !- X,Y,Z Vertex 1 {m}
  11.6729512977653, -3.048, 0,            !- X,Y,Z Vertex 2 {m}
  11.6729512977653, 3.048, 0,             !- X,Y,Z Vertex 3 {m}
  11.6729512977653, 3.048, 2.4384;        !- X,Y,Z Vertex 4 {m}

OS:Surface,
  {a640c829-3a96-40a0-b8db-32f49c76e9ff}, !- Handle
  Surface 5,                              !- Name
  Wall,                                   !- Surface Type
  ,                                       !- Construction Name
  {1d94ea24-7697-4d4e-80b6-d1e1254459a1}, !- Space Name
  Outdoors,                               !- Outside Boundary Condition
  ,                                       !- Outside Boundary Condition Object
  SunExposed,                             !- Sun Exposure
  WindExposed,                            !- Wind Exposure
  ,                                       !- View Factor to Ground
  ,                                       !- Number of Vertices
  5.57695129776527, -3.048, 2.4384,       !- X,Y,Z Vertex 1 {m}
  5.57695129776527, -3.048, 0,            !- X,Y,Z Vertex 2 {m}
  11.6729512977653, -3.048, 0,            !- X,Y,Z Vertex 3 {m}
  11.6729512977653, -3.048, 2.4384;       !- X,Y,Z Vertex 4 {m}

OS:Surface,
  {eb19a8b6-cfcc-4401-a471-b40a29c6f681}, !- Handle
  Surface 6,                              !- Name
  RoofCeiling,                            !- Surface Type
  ,                                       !- Construction Name
  {1d94ea24-7697-4d4e-80b6-d1e1254459a1}, !- Space Name
  Surface,                                !- Outside Boundary Condition
  {d174f764-4e18-458f-8e41-798d6873af59}, !- Outside Boundary Condition Object
  NoSun,                                  !- Sun Exposure
  NoWind,                                 !- Wind Exposure
  ,                                       !- View Factor to Ground
  ,                                       !- Number of Vertices
  11.6729512977653, -3.048, 2.4384,       !- X,Y,Z Vertex 1 {m}
  11.6729512977653, 3.048, 2.4384,        !- X,Y,Z Vertex 2 {m}
  5.57695129776527, 3.048, 2.4384,        !- X,Y,Z Vertex 3 {m}
  5.57695129776527, -3.048, 2.4384;       !- X,Y,Z Vertex 4 {m}

OS:SpaceType,
  {324aca54-ed9a-4668-8e3c-6184b154c4b3}, !- Handle
  Space Type 1,                           !- Name
  ,                                       !- Default Construction Set Name
  ,                                       !- Default Schedule Set Name
  ,                                       !- Group Rendering Name
  ,                                       !- Design Specification Outdoor Air Object Name
  ,                                       !- Standards Template
  ,                                       !- Standards Building Type
  garage;                                 !- Standards Space Type

OS:Space,
  {f4975b4d-cf5f-45d9-9aa9-0593ab6c94f6}, !- Handle
  living space,                           !- Name
  {e504bfb1-d97a-4ac3-9585-e1b45a191f40}, !- Space Type Name
  ,                                       !- Default Construction Set Name
  ,                                       !- Default Schedule Set Name
  -0,                                     !- Direction of Relative North {deg}
  0,                                      !- X Origin {m}
  0,                                      !- Y Origin {m}
  0,                                      !- Z Origin {m}
  ,                                       !- Building Story Name
  {852ee998-8624-4563-9634-f2066c268856}, !- Thermal Zone Name
  ,                                       !- Part of Total Floor Area
  ,                                       !- Design Specification Outdoor Air Object Name
  {979e503a-9d10-4a33-bfbd-d01a0abfd5d8}; !- Building Unit Name

OS:Surface,
  {3c8ab8a7-4e0d-4231-8b23-c26d0c0804bd}, !- Handle
  Surface 7,                              !- Name
  Floor,                                  !- Surface Type
  ,                                       !- Construction Name
  {f4975b4d-cf5f-45d9-9aa9-0593ab6c94f6}, !- Space Name
  Surface,                                !- Outside Boundary Condition
  {25236217-fcee-4212-ab7e-4a419c6c894d}, !- Outside Boundary Condition Object
  NoSun,                                  !- Sun Exposure
  NoWind,                                 !- Wind Exposure
  ,                                       !- View Factor to Ground
  ,                                       !- Number of Vertices
  0, 0, 0,                                !- X,Y,Z Vertex 1 {m}
  0, 5.83647564888264, 0,                 !- X,Y,Z Vertex 2 {m}
  11.6729512977653, 5.83647564888264, 0,  !- X,Y,Z Vertex 3 {m}
  11.6729512977653, 3.048, 0,             !- X,Y,Z Vertex 4 {m}
  5.57695129776527, 3.048, 0,             !- X,Y,Z Vertex 5 {m}
  5.57695129776527, 0, 0;                 !- X,Y,Z Vertex 6 {m}

OS:Surface,
  {b9f8187e-ede9-4a9e-afe2-8d77600f70b0}, !- Handle
  Surface 8,                              !- Name
  Wall,                                   !- Surface Type
  ,                                       !- Construction Name
  {f4975b4d-cf5f-45d9-9aa9-0593ab6c94f6}, !- Space Name
  Outdoors,                               !- Outside Boundary Condition
  ,                                       !- Outside Boundary Condition Object
  SunExposed,                             !- Sun Exposure
  WindExposed,                            !- Wind Exposure
  ,                                       !- View Factor to Ground
  ,                                       !- Number of Vertices
  0, 5.83647564888264, 2.4384,            !- X,Y,Z Vertex 1 {m}
  0, 5.83647564888264, 0,                 !- X,Y,Z Vertex 2 {m}
  0, 0, 0,                                !- X,Y,Z Vertex 3 {m}
  0, 0, 2.4384;                           !- X,Y,Z Vertex 4 {m}

OS:Surface,
  {be2a9a42-86b5-4cf8-b545-5188daf7200c}, !- Handle
  Surface 9,                              !- Name
  Wall,                                   !- Surface Type
  ,                                       !- Construction Name
  {f4975b4d-cf5f-45d9-9aa9-0593ab6c94f6}, !- Space Name
  Outdoors,                               !- Outside Boundary Condition
  ,                                       !- Outside Boundary Condition Object
  SunExposed,                             !- Sun Exposure
  WindExposed,                            !- Wind Exposure
  ,                                       !- View Factor to Ground
  ,                                       !- Number of Vertices
  11.6729512977653, 5.83647564888264, 2.4384, !- X,Y,Z Vertex 1 {m}
  11.6729512977653, 5.83647564888264, 0,  !- X,Y,Z Vertex 2 {m}
  0, 5.83647564888264, 0,                 !- X,Y,Z Vertex 3 {m}
  0, 5.83647564888264, 2.4384;            !- X,Y,Z Vertex 4 {m}

OS:Surface,
  {6c8d3475-fcd5-45f1-8a10-0745ccc02d3d}, !- Handle
  Surface 10,                             !- Name
  Wall,                                   !- Surface Type
  ,                                       !- Construction Name
  {f4975b4d-cf5f-45d9-9aa9-0593ab6c94f6}, !- Space Name
  Outdoors,                               !- Outside Boundary Condition
  ,                                       !- Outside Boundary Condition Object
  SunExposed,                             !- Sun Exposure
  WindExposed,                            !- Wind Exposure
  ,                                       !- View Factor to Ground
  ,                                       !- Number of Vertices
  11.6729512977653, 3.048, 2.4384,        !- X,Y,Z Vertex 1 {m}
  11.6729512977653, 3.048, 0,             !- X,Y,Z Vertex 2 {m}
  11.6729512977653, 5.83647564888264, 0,  !- X,Y,Z Vertex 3 {m}
  11.6729512977653, 5.83647564888264, 2.4384; !- X,Y,Z Vertex 4 {m}

OS:Surface,
  {fad42761-2985-401a-be81-375cbda243b1}, !- Handle
  Surface 11,                             !- Name
  Wall,                                   !- Surface Type
  ,                                       !- Construction Name
  {f4975b4d-cf5f-45d9-9aa9-0593ab6c94f6}, !- Space Name
  Surface,                                !- Outside Boundary Condition
  {5cba65c9-e882-441e-b23b-e5ceef1b3fcf}, !- Outside Boundary Condition Object
  NoSun,                                  !- Sun Exposure
  NoWind,                                 !- Wind Exposure
  ,                                       !- View Factor to Ground
  ,                                       !- Number of Vertices
  5.57695129776527, 3.048, 2.4384,        !- X,Y,Z Vertex 1 {m}
  5.57695129776527, 3.048, 0,             !- X,Y,Z Vertex 2 {m}
  11.6729512977653, 3.048, 0,             !- X,Y,Z Vertex 3 {m}
  11.6729512977653, 3.048, 2.4384;        !- X,Y,Z Vertex 4 {m}

OS:Surface,
  {d82fa7da-118e-4ae4-ac03-5ceebef7bc80}, !- Handle
  Surface 12,                             !- Name
  Wall,                                   !- Surface Type
  ,                                       !- Construction Name
  {f4975b4d-cf5f-45d9-9aa9-0593ab6c94f6}, !- Space Name
  Surface,                                !- Outside Boundary Condition
  {c856f0eb-0624-4bc2-a7e9-94503f934147}, !- Outside Boundary Condition Object
  NoSun,                                  !- Sun Exposure
  NoWind,                                 !- Wind Exposure
  ,                                       !- View Factor to Ground
  ,                                       !- Number of Vertices
  5.57695129776527, 0, 2.4384,            !- X,Y,Z Vertex 1 {m}
  5.57695129776527, 0, 0,                 !- X,Y,Z Vertex 2 {m}
  5.57695129776527, 3.048, 0,             !- X,Y,Z Vertex 3 {m}
  5.57695129776527, 3.048, 2.4384;        !- X,Y,Z Vertex 4 {m}

OS:Surface,
  {68e1f293-33a0-480a-aab7-7feb4dc90ccd}, !- Handle
  Surface 13,                             !- Name
  Wall,                                   !- Surface Type
  ,                                       !- Construction Name
  {f4975b4d-cf5f-45d9-9aa9-0593ab6c94f6}, !- Space Name
  Outdoors,                               !- Outside Boundary Condition
  ,                                       !- Outside Boundary Condition Object
  SunExposed,                             !- Sun Exposure
  WindExposed,                            !- Wind Exposure
  ,                                       !- View Factor to Ground
  ,                                       !- Number of Vertices
  0, 0, 2.4384,                           !- X,Y,Z Vertex 1 {m}
  0, 0, 0,                                !- X,Y,Z Vertex 2 {m}
  5.57695129776527, 0, 0,                 !- X,Y,Z Vertex 3 {m}
  5.57695129776527, 0, 2.4384;            !- X,Y,Z Vertex 4 {m}

OS:Surface,
  {97bc0349-057a-49ca-ad57-b8bc3f8c4873}, !- Handle
  Surface 14,                             !- Name
  RoofCeiling,                            !- Surface Type
  ,                                       !- Construction Name
  {f4975b4d-cf5f-45d9-9aa9-0593ab6c94f6}, !- Space Name
  Surface,                                !- Outside Boundary Condition
  {6d34703a-dcae-4f75-acf3-5cabe69971a9}, !- Outside Boundary Condition Object
  NoSun,                                  !- Sun Exposure
  NoWind,                                 !- Wind Exposure
  ,                                       !- View Factor to Ground
  ,                                       !- Number of Vertices
  5.57695129776527, 0, 2.4384,            !- X,Y,Z Vertex 1 {m}