!- NOTE: Auto-generated from /test/osw_files/SFD_1story_UB_UA_GRG_ACV_FuelFurnace_HPWH.osw

OS:Version,
  {fcb76160-d674-4999-a3bf-20eb214dbb45}, !- Handle
  2.9.0;                                  !- Version Identifier

OS:SimulationControl,
  {89c943a4-76b3-4a60-9739-1ce7ed91b650}, !- Handle
  ,                                       !- Do Zone Sizing Calculation
  ,                                       !- Do System Sizing Calculation
  ,                                       !- Do Plant Sizing Calculation
  No;                                     !- Run Simulation for Sizing Periods

OS:Timestep,
  {7dacd60a-b137-44d0-b993-142574c34e6c}, !- Handle
  6;                                      !- Number of Timesteps per Hour

OS:ShadowCalculation,
  {cdc7f4d9-10b1-4091-8ce5-999c576e8fb1}, !- Handle
  20,                                     !- Calculation Frequency
  200;                                    !- Maximum Figures in Shadow Overlap Calculations

OS:SurfaceConvectionAlgorithm:Outside,
  {03967ca5-c021-46e1-9467-3f2eb5bde991}, !- Handle
  DOE-2;                                  !- Algorithm

OS:SurfaceConvectionAlgorithm:Inside,
  {7bdf7779-7c0d-48a8-9096-dcbedccc0603}, !- Handle
  TARP;                                   !- Algorithm

OS:ZoneCapacitanceMultiplier:ResearchSpecial,
  {2a4fd363-de2c-4cd4-a9d9-b6d94a6499e8}, !- Handle
  ,                                       !- Temperature Capacity Multiplier
  15,                                     !- Humidity Capacity Multiplier
  ;                                       !- Carbon Dioxide Capacity Multiplier

OS:RunPeriod,
  {1b4e27f8-f9d4-40c8-b4ba-c0ceace0547b}, !- Handle
  Run Period 1,                           !- Name
  1,                                      !- Begin Month
  1,                                      !- Begin Day of Month
  12,                                     !- End Month
  31,                                     !- End Day of Month
  ,                                       !- Use Weather File Holidays and Special Days
  ,                                       !- Use Weather File Daylight Saving Period
  ,                                       !- Apply Weekend Holiday Rule
  ,                                       !- Use Weather File Rain Indicators
  ,                                       !- Use Weather File Snow Indicators
  ;                                       !- Number of Times Runperiod to be Repeated

OS:YearDescription,
  {f15b1145-f366-4024-99f4-adafcc1dc8ef}, !- Handle
  2007,                                   !- Calendar Year
  ,                                       !- Day of Week for Start Day
  ;                                       !- Is Leap Year

OS:WeatherFile,
  {32141c35-0472-4c15-8239-5e55f0b2f47f}, !- Handle
  Denver Intl Ap,                         !- City
  CO,                                     !- State Province Region
  USA,                                    !- Country
  TMY3,                                   !- Data Source
  725650,                                 !- WMO Number
  39.83,                                  !- Latitude {deg}
  -104.65,                                !- Longitude {deg}
  -7,                                     !- Time Zone {hr}
  1650,                                   !- Elevation {m}
  file:../weather/USA_CO_Denver.Intl.AP.725650_TMY3.epw, !- Url
  E23378AA;                               !- Checksum

OS:AdditionalProperties,
  {7c8d3d34-a91a-4eb8-a927-460e9cec4968}, !- Handle
  {32141c35-0472-4c15-8239-5e55f0b2f47f}, !- Object Name
  EPWHeaderCity,                          !- Feature Name 1
  String,                                 !- Feature Data Type 1
  Denver Intl Ap,                         !- Feature Value 1
  EPWHeaderState,                         !- Feature Name 2
  String,                                 !- Feature Data Type 2
  CO,                                     !- Feature Value 2
  EPWHeaderCountry,                       !- Feature Name 3
  String,                                 !- Feature Data Type 3
  USA,                                    !- Feature Value 3
  EPWHeaderDataSource,                    !- Feature Name 4
  String,                                 !- Feature Data Type 4
  TMY3,                                   !- Feature Value 4
  EPWHeaderStation,                       !- Feature Name 5
  String,                                 !- Feature Data Type 5
  725650,                                 !- Feature Value 5
  EPWHeaderLatitude,                      !- Feature Name 6
  Double,                                 !- Feature Data Type 6
  39.829999999999998,                     !- Feature Value 6
  EPWHeaderLongitude,                     !- Feature Name 7
  Double,                                 !- Feature Data Type 7
  -104.65000000000001,                    !- Feature Value 7
  EPWHeaderTimezone,                      !- Feature Name 8
  Double,                                 !- Feature Data Type 8
  -7,                                     !- Feature Value 8
  EPWHeaderAltitude,                      !- Feature Name 9
  Double,                                 !- Feature Data Type 9
  5413.3858267716532,                     !- Feature Value 9
  EPWHeaderLocalPressure,                 !- Feature Name 10
  Double,                                 !- Feature Data Type 10
  0.81937567683596546,                    !- Feature Value 10
  EPWHeaderRecordsPerHour,                !- Feature Name 11
  Double,                                 !- Feature Data Type 11
  0,                                      !- Feature Value 11
  EPWDataAnnualAvgDrybulb,                !- Feature Name 12
  Double,                                 !- Feature Data Type 12
  51.575616438356228,                     !- Feature Value 12
  EPWDataAnnualMinDrybulb,                !- Feature Name 13
  Double,                                 !- Feature Data Type 13
  -2.9200000000000017,                    !- Feature Value 13
  EPWDataAnnualMaxDrybulb,                !- Feature Name 14
  Double,                                 !- Feature Data Type 14
  104,                                    !- Feature Value 14
  EPWDataCDD50F,                          !- Feature Name 15
  Double,                                 !- Feature Data Type 15
  3072.2925000000005,                     !- Feature Value 15
  EPWDataCDD65F,                          !- Feature Name 16
  Double,                                 !- Feature Data Type 16
  883.62000000000035,                     !- Feature Value 16
  EPWDataHDD50F,                          !- Feature Name 17
  Double,                                 !- Feature Data Type 17
  2497.1925000000001,                     !- Feature Value 17
  EPWDataHDD65F,                          !- Feature Name 18
  Double,                                 !- Feature Data Type 18
  5783.5200000000013,                     !- Feature Value 18
  EPWDataAnnualAvgWindspeed,              !- Feature Name 19
  Double,                                 !- Feature Data Type 19
  3.9165296803649667,                     !- Feature Value 19
  EPWDataMonthlyAvgDrybulbs,              !- Feature Name 20
  String,                                 !- Feature Data Type 20
  33.4191935483871&#4431.90142857142857&#4443.02620967741937&#4442.48624999999999&#4459.877741935483854&#4473.57574999999997&#4472.07975806451608&#4472.70008064516134&#4466.49200000000006&#4450.079112903225806&#4437.218250000000005&#4434.582177419354835, !- Feature Value 20
  EPWDataGroundMonthlyTemps,              !- Feature Name 21
  String,                                 !- Feature Data Type 21
  44.08306285945173&#4440.89570904991865&#4440.64045432632048&#4442.153016571250646&#4448.225111118704206&#4454.268919273837525&#4459.508577937551024&#4462.82777283423508&#4463.10975667174995&#4460.41014950381947&#4455.304105212311526&#4449.445696474514364, !- Feature Value 21
  EPWDataWSF,                             !- Feature Name 22
  Double,                                 !- Feature Data Type 22
  0.58999999999999997,                    !- Feature Value 22
  EPWDataMonthlyAvgDailyHighDrybulbs,     !- Feature Name 23
  String,                                 !- Feature Data Type 23
  47.41032258064516&#4446.58642857142857&#4455.15032258064517&#4453.708&#4472.80193548387098&#4488.67600000000002&#4486.1858064516129&#4485.87225806451613&#4482.082&#4463.18064516129033&#4448.73400000000001&#4448.87935483870968, !- Feature Value 23
  EPWDataMonthlyAvgDailyLowDrybulbs,      !- Feature Name 24
  String,                                 !- Feature Data Type 24
  19.347741935483874&#4419.856428571428573&#4430.316129032258065&#4431.112&#4447.41612903225806&#4457.901999999999994&#4459.063870967741934&#4460.956774193548384&#4452.352000000000004&#4438.41612903225806&#4427.002000000000002&#4423.02903225806451, !- Feature Value 24
  EPWDesignHeatingDrybulb,                !- Feature Name 25
  Double,                                 !- Feature Data Type 25
  12.02,                                  !- Feature Value 25
  EPWDesignHeatingWindspeed,              !- Feature Name 26
  Double,                                 !- Feature Data Type 26
  2.8062500000000004,                     !- Feature Value 26
  EPWDesignCoolingDrybulb,                !- Feature Name 27
  Double,                                 !- Feature Data Type 27
  91.939999999999998,                     !- Feature Value 27
  EPWDesignCoolingWetbulb,                !- Feature Name 28
  Double,                                 !- Feature Data Type 28
  59.95131430195849,                      !- Feature Value 28
  EPWDesignCoolingHumidityRatio,          !- Feature Name 29
  Double,                                 !- Feature Data Type 29
  0.0059161086834698092,                  !- Feature Value 29
  EPWDesignCoolingWindspeed,              !- Feature Name 30
  Double,                                 !- Feature Data Type 30
  3.7999999999999989,                     !- Feature Value 30
  EPWDesignDailyTemperatureRange,         !- Feature Name 31
  Double,                                 !- Feature Data Type 31
  24.915483870967748,                     !- Feature Value 31
  EPWDesignDehumidDrybulb,                !- Feature Name 32
  Double,                                 !- Feature Data Type 32
  67.996785714285721,                     !- Feature Value 32
  EPWDesignDehumidHumidityRatio,          !- Feature Name 33
  Double,                                 !- Feature Data Type 33
  0.012133744170488724,                   !- Feature Value 33
  EPWDesignCoolingDirectNormal,           !- Feature Name 34
  Double,                                 !- Feature Data Type 34
  985,                                    !- Feature Value 34
  EPWDesignCoolingDiffuseHorizontal,      !- Feature Name 35
  Double,                                 !- Feature Data Type 35
  84;                                     !- Feature Value 35

OS:Site,
  {e1033633-33f9-47dd-9802-cc8f92bd3324}, !- Handle
  Denver Intl Ap_CO_USA,                  !- Name
  39.83,                                  !- Latitude {deg}
  -104.65,                                !- Longitude {deg}
  -7,                                     !- Time Zone {hr}
  1650,                                   !- Elevation {m}
  ;                                       !- Terrain

OS:ClimateZones,
  {63905e02-6c34-4899-9ae8-582db65a266c}, !- Handle
  ,                                       !- Active Institution
  ,                                       !- Active Year
  ,                                       !- Climate Zone Institution Name 1
  ,                                       !- Climate Zone Document Name 1
  ,                                       !- Climate Zone Document Year 1
  ,                                       !- Climate Zone Value 1
  Building America,                       !- Climate Zone Institution Name 2
  ,                                       !- Climate Zone Document Name 2
  0,                                      !- Climate Zone Document Year 2
  Cold;                                   !- Climate Zone Value 2

OS:Site:WaterMainsTemperature,
  {c8764196-2e1d-49e3-b937-287a79b3782e}, !- Handle
  Correlation,                            !- Calculation Method
  ,                                       !- Temperature Schedule Name
  10.8753424657535,                       !- Annual Average Outdoor Air Temperature {C}
  23.1524007936508;                       !- Maximum Difference In Monthly Average Outdoor Air Temperatures {deltaC}

OS:RunPeriodControl:DaylightSavingTime,
  {429bcfec-3f1c-4efc-ba68-c6fd5e5c951d}, !- Handle
  4/7,                                    !- Start Date
  10/26;                                  !- End Date

OS:Site:GroundTemperature:Deep,
  {827a5513-fa93-425e-ab69-4922b6e38a49}, !- Handle
  10.8753424657535,                       !- January Deep Ground Temperature {C}
  10.8753424657535,                       !- February Deep Ground Temperature {C}
  10.8753424657535,                       !- March Deep Ground Temperature {C}
  10.8753424657535,                       !- April Deep Ground Temperature {C}
  10.8753424657535,                       !- May Deep Ground Temperature {C}
  10.8753424657535,                       !- June Deep Ground Temperature {C}
  10.8753424657535,                       !- July Deep Ground Temperature {C}
  10.8753424657535,                       !- August Deep Ground Temperature {C}
  10.8753424657535,                       !- September Deep Ground Temperature {C}
  10.8753424657535,                       !- October Deep Ground Temperature {C}
  10.8753424657535,                       !- November Deep Ground Temperature {C}
  10.8753424657535;                       !- December Deep Ground Temperature {C}

OS:ThermalZone,
  {71d4612c-8695-42a8-97ea-99baec20f408}, !- Handle
  living zone,                            !- Name
  ,                                       !- Multiplier
  ,                                       !- Ceiling Height {m}
  ,                                       !- Volume {m3}
  ,                                       !- Floor Area {m2}
  ,                                       !- Zone Inside Convection Algorithm
  ,                                       !- Zone Outside Convection Algorithm
  ,                                       !- Zone Conditioning Equipment List Name
  {9218eebb-b058-41a3-ab2b-b39d4888b8bf}, !- Zone Air Inlet Port List
  {21400547-ab3a-438d-8c7a-687227f692f6}, !- Zone Air Exhaust Port List
  {6636991d-2969-41ea-aa99-04dbb544e392}, !- Zone Air Node Name
  {cdb126ac-5402-472e-87b0-702540ba12aa}, !- Zone Return Air Port List
  ,                                       !- Primary Daylighting Control Name
  ,                                       !- Fraction of Zone Controlled by Primary Daylighting Control
  ,                                       !- Secondary Daylighting Control Name
  ,                                       !- Fraction of Zone Controlled by Secondary Daylighting Control
  ,                                       !- Illuminance Map Name
  ,                                       !- Group Rendering Name
  {e613585f-7e73-4e85-8d4c-3db949433efd}, !- Thermostat Name
  No;                                     !- Use Ideal Air Loads

OS:Node,
  {02ca996b-1d22-42ce-9257-b0286419c0f8}, !- Handle
  Node 1,                                 !- Name
  {6636991d-2969-41ea-aa99-04dbb544e392}, !- Inlet Port
  ;                                       !- Outlet Port

OS:Connection,
  {6636991d-2969-41ea-aa99-04dbb544e392}, !- Handle
  {366c5d38-2060-43b1-b557-38a3b955eaaf}, !- Name
  {71d4612c-8695-42a8-97ea-99baec20f408}, !- Source Object
  11,                                     !- Outlet Port
  {02ca996b-1d22-42ce-9257-b0286419c0f8}, !- Target Object
  2;                                      !- Inlet Port

OS:PortList,
  {9218eebb-b058-41a3-ab2b-b39d4888b8bf}, !- Handle
  {1e6fdd26-0f4a-4ab9-a48a-d184904614aa}, !- Name
  {71d4612c-8695-42a8-97ea-99baec20f408}, !- HVAC Component
  {8bb390de-b196-41da-aa1b-ff88b54d23fd}, !- Port 1
  {c80cf9b9-4d68-4587-a320-9623dc05fef6}; !- Port 2

OS:PortList,
  {21400547-ab3a-438d-8c7a-687227f692f6}, !- Handle
  {c1045f96-271d-4a82-b932-6ebbc309a5ef}, !- Name
  {71d4612c-8695-42a8-97ea-99baec20f408}; !- HVAC Component

OS:PortList,
  {cdb126ac-5402-472e-87b0-702540ba12aa}, !- Handle
  {22d4dcd7-8368-470f-8375-553db7c2bb4c}, !- Name
  {71d4612c-8695-42a8-97ea-99baec20f408}, !- HVAC Component
  {528c1621-e931-402d-8c5c-de2a6da15109}, !- Port 1
  {daa250d8-9eae-4f88-a001-5558ba6537ff}; !- Port 2

OS:Sizing:Zone,
  {a9256e2a-a0a3-4e6a-9a9b-8ec82ba79ca2}, !- Handle
  {71d4612c-8695-42a8-97ea-99baec20f408}, !- Zone or ZoneList Name
  SupplyAirTemperature,                   !- Zone Cooling Design Supply Air Temperature Input Method
  14,                                     !- Zone Cooling Design Supply Air Temperature {C}
  11.11,                                  !- Zone Cooling Design Supply Air Temperature Difference {deltaC}
  SupplyAirTemperature,                   !- Zone Heating Design Supply Air Temperature Input Method
  40,                                     !- Zone Heating Design Supply Air Temperature {C}
  11.11,                                  !- Zone Heating Design Supply Air Temperature Difference {deltaC}
  0.0085,                                 !- Zone Cooling Design Supply Air Humidity Ratio {kg-H2O/kg-air}
  0.008,                                  !- Zone Heating Design Supply Air Humidity Ratio {kg-H2O/kg-air}
  ,                                       !- Zone Heating Sizing Factor
  ,                                       !- Zone Cooling Sizing Factor
  DesignDay,                              !- Cooling Design Air Flow Method
  ,                                       !- Cooling Design Air Flow Rate {m3/s}
  ,                                       !- Cooling Minimum Air Flow per Zone Floor Area {m3/s-m2}
  ,                                       !- Cooling Minimum Air Flow {m3/s}
  ,                                       !- Cooling Minimum Air Flow Fraction
  DesignDay,                              !- Heating Design Air Flow Method
  ,                                       !- Heating Design Air Flow Rate {m3/s}
  ,                                       !- Heating Maximum Air Flow per Zone Floor Area {m3/s-m2}
  ,                                       !- Heating Maximum Air Flow {m3/s}
  ,                                       !- Heating Maximum Air Flow Fraction
  ,                                       !- Design Zone Air Distribution Effectiveness in Cooling Mode
  ,                                       !- Design Zone Air Distribution Effectiveness in Heating Mode
  No,                                     !- Account for Dedicated Outdoor Air System
  NeutralSupplyAir,                       !- Dedicated Outdoor Air System Control Strategy
  autosize,                               !- Dedicated Outdoor Air Low Setpoint Temperature for Design {C}
  autosize;                               !- Dedicated Outdoor Air High Setpoint Temperature for Design {C}

OS:ZoneHVAC:EquipmentList,
  {f4202439-2427-4ead-8e3f-1533e5ebc3d4}, !- Handle
  Zone HVAC Equipment List 1,             !- Name
  {71d4612c-8695-42a8-97ea-99baec20f408}, !- Thermal Zone
  SequentialLoad,                         !- Load Distribution Scheme
  {9ce39bad-3481-4244-a1c3-2a8a11355a75}, !- Zone Equipment 1
  1,                                      !- Zone Equipment Cooling Sequence 1
  1,                                      !- Zone Equipment Heating or No-Load Sequence 1
  ,                                       !- Zone Equipment Sequential Cooling Fraction Schedule Name 1
  ,                                       !- Zone Equipment Sequential Heating Fraction Schedule Name 1
  {8f1f9899-66c2-472c-93d8-dc69382d0a74}, !- Zone Equipment 2
  2,                                      !- Zone Equipment Cooling Sequence 2
  2,                                      !- Zone Equipment Heating or No-Load Sequence 2
  ,                                       !- Zone Equipment Sequential Cooling Fraction Schedule Name 2
  ;                                       !- Zone Equipment Sequential Heating Fraction Schedule Name 2

OS:ThermalZone,
  {8a110f2e-8fc0-4daf-9b78-ee2d7ed756fa}, !- Handle
  garage zone,                            !- Name
  ,                                       !- Multiplier
  ,                                       !- Ceiling Height {m}
  ,                                       !- Volume {m3}
  ,                                       !- Floor Area {m2}
  ,                                       !- Zone Inside Convection Algorithm
  ,                                       !- Zone Outside Convection Algorithm
  ,                                       !- Zone Conditioning Equipment List Name
  {32b0d7ba-6c7f-4052-8110-827a581165c4}, !- Zone Air Inlet Port List
  {e0fdeba2-b4c5-4a51-ae6d-3acffd89a4a1}, !- Zone Air Exhaust Port List
  {e83262d4-b1e4-4523-9127-0f03d8c3e2ad}, !- Zone Air Node Name
  {20badc0c-42bd-4498-8449-3d68a57bf9d0}, !- Zone Return Air Port List
  ,                                       !- Primary Daylighting Control Name
  ,                                       !- Fraction of Zone Controlled by Primary Daylighting Control
  ,                                       !- Secondary Daylighting Control Name
  ,                                       !- Fraction of Zone Controlled by Secondary Daylighting Control
  ,                                       !- Illuminance Map Name
  ,                                       !- Group Rendering Name
  ,                                       !- Thermostat Name
  No;                                     !- Use Ideal Air Loads

OS:Node,
  {c4116859-a076-4132-a78f-acfd3f4594ef}, !- Handle
  Node 2,                                 !- Name
  {e83262d4-b1e4-4523-9127-0f03d8c3e2ad}, !- Inlet Port
  ;                                       !- Outlet Port

OS:Connection,
  {e83262d4-b1e4-4523-9127-0f03d8c3e2ad}, !- Handle
  {ba7951b3-779b-4b74-8a91-afbf6efe55f9}, !- Name
  {8a110f2e-8fc0-4daf-9b78-ee2d7ed756fa}, !- Source Object
  11,                                     !- Outlet Port
  {c4116859-a076-4132-a78f-acfd3f4594ef}, !- Target Object
  2;                                      !- Inlet Port

OS:PortList,
  {32b0d7ba-6c7f-4052-8110-827a581165c4}, !- Handle
  {4ff8090c-5451-40f3-b09f-befa99c03dea}, !- Name
  {8a110f2e-8fc0-4daf-9b78-ee2d7ed756fa}; !- HVAC Component

OS:PortList,
  {e0fdeba2-b4c5-4a51-ae6d-3acffd89a4a1}, !- Handle
  {ee512970-571e-45d9-9344-8ed9c14c8938}, !- Name
  {8a110f2e-8fc0-4daf-9b78-ee2d7ed756fa}; !- HVAC Component

OS:PortList,
  {20badc0c-42bd-4498-8449-3d68a57bf9d0}, !- Handle
  {51f62d8a-a784-4e14-a20b-6a7397a1b229}, !- Name
  {8a110f2e-8fc0-4daf-9b78-ee2d7ed756fa}; !- HVAC Component

OS:Sizing:Zone,
  {eb6a7022-5fb8-4649-81c9-d173614112a6}, !- Handle
  {8a110f2e-8fc0-4daf-9b78-ee2d7ed756fa}, !- Zone or ZoneList Name
  SupplyAirTemperature,                   !- Zone Cooling Design Supply Air Temperature Input Method
  14,                                     !- Zone Cooling Design Supply Air Temperature {C}
  11.11,                                  !- Zone Cooling Design Supply Air Temperature Difference {deltaC}
  SupplyAirTemperature,                   !- Zone Heating Design Supply Air Temperature Input Method
  40,                                     !- Zone Heating Design Supply Air Temperature {C}
  11.11,                                  !- Zone Heating Design Supply Air Temperature Difference {deltaC}
  0.0085,                                 !- Zone Cooling Design Supply Air Humidity Ratio {kg-H2O/kg-air}
  0.008,                                  !- Zone Heating Design Supply Air Humidity Ratio {kg-H2O/kg-air}
  ,                                       !- Zone Heating Sizing Factor
  ,                                       !- Zone Cooling Sizing Factor
  DesignDay,                              !- Cooling Design Air Flow Method
  ,                                       !- Cooling Design Air Flow Rate {m3/s}
  ,                                       !- Cooling Minimum Air Flow per Zone Floor Area {m3/s-m2}
  ,                                       !- Cooling Minimum Air Flow {m3/s}
  ,                                       !- Cooling Minimum Air Flow Fraction
  DesignDay,                              !- Heating Design Air Flow Method
  ,                                       !- Heating Design Air Flow Rate {m3/s}
  ,                                       !- Heating Maximum Air Flow per Zone Floor Area {m3/s-m2}
  ,                                       !- Heating Maximum Air Flow {m3/s}
  ,                                       !- Heating Maximum Air Flow Fraction
  ,                                       !- Design Zone Air Distribution Effectiveness in Cooling Mode
  ,                                       !- Design Zone Air Distribution Effectiveness in Heating Mode
  No,                                     !- Account for Dedicated Outdoor Air System
  NeutralSupplyAir,                       !- Dedicated Outdoor Air System Control Strategy
  autosize,                               !- Dedicated Outdoor Air Low Setpoint Temperature for Design {C}
  autosize;                               !- Dedicated Outdoor Air High Setpoint Temperature for Design {C}

OS:ZoneHVAC:EquipmentList,
  {de1bd9cc-4059-455a-a6d4-c7d4730bc82a}, !- Handle
  Zone HVAC Equipment List 2,             !- Name
  {8a110f2e-8fc0-4daf-9b78-ee2d7ed756fa}; !- Thermal Zone

OS:Space,
  {52114333-7b3a-4868-9bce-05497df651e3}, !- Handle
  garage space,                           !- Name
  {a4270a78-21b7-4150-8b59-29fff5de8fbe}, !- Space Type Name
  ,                                       !- Default Construction Set Name
  ,                                       !- Default Schedule Set Name
  -0,                                     !- Direction of Relative North {deg}
  0,                                      !- X Origin {m}
  0,                                      !- Y Origin {m}
  0,                                      !- Z Origin {m}
  ,                                       !- Building Story Name
  {8a110f2e-8fc0-4daf-9b78-ee2d7ed756fa}; !- Thermal Zone Name

OS:Surface,
  {a3b5d442-2484-479f-b25f-a62ee3a016c5}, !- Handle
  Surface 1,                              !- Name
  Floor,                                  !- Surface Type
  {e5e4c751-247d-4bee-a71d-c2db1736eb77}, !- Construction Name
  {52114333-7b3a-4868-9bce-05497df651e3}, !- Space Name
  Foundation,                             !- Outside Boundary Condition
  {9a057866-7f7c-439a-94ad-2304cf42ebfe}, !- Outside Boundary Condition Object
  NoSun,                                  !- Sun Exposure
  NoWind,                                 !- Wind Exposure
  ,                                       !- View Factor to Ground
  ,                                       !- Number of Vertices
  24.209855785701, -3.6576, 0,            !- X,Y,Z Vertex 1 {m}
  24.209855785701, 3.6576, 0,             !- X,Y,Z Vertex 2 {m}
  27.867455785701, 3.6576, 0,             !- X,Y,Z Vertex 3 {m}
  27.867455785701, -3.6576, 0;            !- X,Y,Z Vertex 4 {m}

OS:Surface,
  {8fec478e-99da-411a-acd6-27be46b83f22}, !- Handle
  Surface 2,                              !- Name
  Wall,                                   !- Surface Type
  {97aefee4-9d4d-4aae-b1db-9a6e0915306a}, !- Construction Name
  {52114333-7b3a-4868-9bce-05497df651e3}, !- Space Name
  Surface,                                !- Outside Boundary Condition
  {0108ae79-4df5-47a5-a829-93a4770a7d87}, !- Outside Boundary Condition Object
  NoSun,                                  !- Sun Exposure
  NoWind,                                 !- Wind Exposure
  ,                                       !- View Factor to Ground
  ,                                       !- Number of Vertices
  24.209855785701, 3.6576, 2.4384,        !- X,Y,Z Vertex 1 {m}
  24.209855785701, 3.6576, 0,             !- X,Y,Z Vertex 2 {m}
  24.209855785701, 0, 0,                  !- X,Y,Z Vertex 3 {m}
  24.209855785701, 0, 2.4384;             !- X,Y,Z Vertex 4 {m}

OS:Surface,
  {bc0c908a-29dd-42e1-ad85-c037a137bdbe}, !- Handle
  Surface 3,                              !- Name
  Wall,                                   !- Surface Type
  {97aefee4-9d4d-4aae-b1db-9a6e0915306a}, !- Construction Name
  {52114333-7b3a-4868-9bce-05497df651e3}, !- Space Name
  Surface,                                !- Outside Boundary Condition
  {e125f151-5861-4c2e-ae4c-5366201eb1f1}, !- Outside Boundary Condition Object
  NoSun,                                  !- Sun Exposure
  NoWind,                                 !- Wind Exposure
  ,                                       !- View Factor to Ground
  ,                                       !- Number of Vertices
  27.867455785701, 3.6576, 2.4384,        !- X,Y,Z Vertex 1 {m}
  27.867455785701, 3.6576, 0,             !- X,Y,Z Vertex 2 {m}
  24.209855785701, 3.6576, 0,             !- X,Y,Z Vertex 3 {m}
  24.209855785701, 3.6576, 2.4384;        !- X,Y,Z Vertex 4 {m}

OS:Surface,
  {211b51e0-e811-48b3-8792-54d0cbf6fd0e}, !- Handle
  Surface 4,                              !- Name
  Wall,                                   !- Surface Type
  {6678bd30-f470-4baf-b463-ac0750ab6e61}, !- Construction Name
  {52114333-7b3a-4868-9bce-05497df651e3}, !- Space Name
  Outdoors,                               !- Outside Boundary Condition
  ,                                       !- Outside Boundary Condition Object
  SunExposed,                             !- Sun Exposure
  WindExposed,                            !- Wind Exposure
  ,                                       !- View Factor to Ground
  ,                                       !- Number of Vertices
  27.867455785701, -3.6576, 2.4384,       !- X,Y,Z Vertex 1 {m}
  27.867455785701, -3.6576, 0,            !- X,Y,Z Vertex 2 {m}