!- NOTE: Auto-generated from /test/osw_files/SFD_2story_FB_UA_GRG_AC1_ElecBaseboard_FuelTankWH.osw

OS:Version,
  {2e1836bc-1c58-4d8f-8b02-e0e011818893}, !- Handle
  2.8.0;                                  !- Version Identifier

OS:SimulationControl,
  {98f4d7ef-32ad-46f6-89d4-1187b69f19ee}, !- Handle
  ,                                       !- Do Zone Sizing Calculation
  ,                                       !- Do System Sizing Calculation
  ,                                       !- Do Plant Sizing Calculation
  No;                                     !- Run Simulation for Sizing Periods

OS:Timestep,
  {e87d874c-a2e8-43fc-b9d3-9fee85052066}, !- Handle
  6;                                      !- Number of Timesteps per Hour

OS:ShadowCalculation,
  {d80028c2-a050-4221-a203-94a9cd8c8eb8}, !- Handle
  20,                                     !- Calculation Frequency
  200;                                    !- Maximum Figures in Shadow Overlap Calculations

OS:SurfaceConvectionAlgorithm:Outside,
  {5b071732-e2c9-4fd3-86bc-c64a7f2d70da}, !- Handle
  DOE-2;                                  !- Algorithm

OS:SurfaceConvectionAlgorithm:Inside,
  {3454c4d4-4ee1-4b46-b8ae-27c41e920abb}, !- Handle
  TARP;                                   !- Algorithm

OS:ZoneCapacitanceMultiplier:ResearchSpecial,
  {2b20e56b-d15c-4717-aaa5-1075cb2f60c2}, !- Handle
  ,                                       !- Temperature Capacity Multiplier
  15,                                     !- Humidity Capacity Multiplier
  ;                                       !- Carbon Dioxide Capacity Multiplier

OS:RunPeriod,
  {c505e9d6-f37b-407f-a6dc-60a38bfe54c0}, !- Handle
  Run Period 1,                           !- Name
  1,                                      !- Begin Month
  1,                                      !- Begin Day of Month
  12,                                     !- End Month
  31,                                     !- End Day of Month
  ,                                       !- Use Weather File Holidays and Special Days
  ,                                       !- Use Weather File Daylight Saving Period
  ,                                       !- Apply Weekend Holiday Rule
  ,                                       !- Use Weather File Rain Indicators
  ,                                       !- Use Weather File Snow Indicators
  ;                                       !- Number of Times Runperiod to be Repeated

OS:WeatherFile,
  {ed6285be-c293-4e01-86f4-7ac4cc72d7a4}, !- Handle
  Denver Intl Ap,                         !- City
  CO,                                     !- State Province Region
  USA,                                    !- Country
  TMY3,                                   !- Data Source
  725650,                                 !- WMO Number
  39.83,                                  !- Latitude {deg}
  -104.65,                                !- Longitude {deg}
  -7,                                     !- Time Zone {hr}
  1650,                                   !- Elevation {m}
  file:../weather/USA_CO_Denver.Intl.AP.725650_TMY3.epw, !- Url
  E23378AA;                               !- Checksum

OS:AdditionalProperties,
  {1057b3f7-04c6-4ac4-8233-9a47b302181e}, !- Handle
  {ed6285be-c293-4e01-86f4-7ac4cc72d7a4}, !- Object Name
  EPWHeaderCity,                          !- Feature Name 1
  String,                                 !- Feature Data Type 1
  Denver Intl Ap,                         !- Feature Value 1
  EPWHeaderState,                         !- Feature Name 2
  String,                                 !- Feature Data Type 2
  CO,                                     !- Feature Value 2
  EPWHeaderCountry,                       !- Feature Name 3
  String,                                 !- Feature Data Type 3
  USA,                                    !- Feature Value 3
  EPWHeaderDataSource,                    !- Feature Name 4
  String,                                 !- Feature Data Type 4
  TMY3,                                   !- Feature Value 4
  EPWHeaderStation,                       !- Feature Name 5
  String,                                 !- Feature Data Type 5
  725650,                                 !- Feature Value 5
  EPWHeaderLatitude,                      !- Feature Name 6
  Double,                                 !- Feature Data Type 6
  39.829999999999998,                     !- Feature Value 6
  EPWHeaderLongitude,                     !- Feature Name 7
  Double,                                 !- Feature Data Type 7
  -104.65000000000001,                    !- Feature Value 7
  EPWHeaderTimezone,                      !- Feature Name 8
  Double,                                 !- Feature Data Type 8
  -7,                                     !- Feature Value 8
  EPWHeaderAltitude,                      !- Feature Name 9
  Double,                                 !- Feature Data Type 9
  5413.3858267716532,                     !- Feature Value 9
  EPWHeaderLocalPressure,                 !- Feature Name 10
  Double,                                 !- Feature Data Type 10
  0.81937567683596546,                    !- Feature Value 10
  EPWHeaderRecordsPerHour,                !- Feature Name 11
  Double,                                 !- Feature Data Type 11
  0,                                      !- Feature Value 11
  EPWDataAnnualAvgDrybulb,                !- Feature Name 12
  Double,                                 !- Feature Data Type 12
  51.575616438356228,                     !- Feature Value 12
  EPWDataAnnualMinDrybulb,                !- Feature Name 13
  Double,                                 !- Feature Data Type 13
  -2.9200000000000017,                    !- Feature Value 13
  EPWDataAnnualMaxDrybulb,                !- Feature Name 14
  Double,                                 !- Feature Data Type 14
  104,                                    !- Feature Value 14
  EPWDataCDD50F,                          !- Feature Name 15
  Double,                                 !- Feature Data Type 15
  3072.2925000000005,                     !- Feature Value 15
  EPWDataCDD65F,                          !- Feature Name 16
  Double,                                 !- Feature Data Type 16
  883.62000000000035,                     !- Feature Value 16
  EPWDataHDD50F,                          !- Feature Name 17
  Double,                                 !- Feature Data Type 17
  2497.1925000000001,                     !- Feature Value 17
  EPWDataHDD65F,                          !- Feature Name 18
  Double,                                 !- Feature Data Type 18
  5783.5200000000013,                     !- Feature Value 18
  EPWDataAnnualAvgWindspeed,              !- Feature Name 19
  Double,                                 !- Feature Data Type 19
  3.9165296803649667,                     !- Feature Value 19
  EPWDataMonthlyAvgDrybulbs,              !- Feature Name 20
  String,                                 !- Feature Data Type 20
  33.4191935483871&#4431.90142857142857&#4443.02620967741937&#4442.48624999999999&#4459.877741935483854&#4473.57574999999997&#4472.07975806451608&#4472.70008064516134&#4466.49200000000006&#4450.079112903225806&#4437.218250000000005&#4434.582177419354835, !- Feature Value 20
  EPWDataGroundMonthlyTemps,              !- Feature Name 21
  String,                                 !- Feature Data Type 21
  44.08306285945173&#4440.89570904991865&#4440.64045432632048&#4442.153016571250646&#4448.225111118704206&#4454.268919273837525&#4459.508577937551024&#4462.82777283423508&#4463.10975667174995&#4460.41014950381947&#4455.304105212311526&#4449.445696474514364, !- Feature Value 21
  EPWDataWSF,                             !- Feature Name 22
  Double,                                 !- Feature Data Type 22
  0.58999999999999997,                    !- Feature Value 22
  EPWDataMonthlyAvgDailyHighDrybulbs,     !- Feature Name 23
  String,                                 !- Feature Data Type 23
  47.41032258064516&#4446.58642857142857&#4455.15032258064517&#4453.708&#4472.80193548387098&#4488.67600000000002&#4486.1858064516129&#4485.87225806451613&#4482.082&#4463.18064516129033&#4448.73400000000001&#4448.87935483870968, !- Feature Value 23
  EPWDataMonthlyAvgDailyLowDrybulbs,      !- Feature Name 24
  String,                                 !- Feature Data Type 24
  19.347741935483874&#4419.856428571428573&#4430.316129032258065&#4431.112&#4447.41612903225806&#4457.901999999999994&#4459.063870967741934&#4460.956774193548384&#4452.352000000000004&#4438.41612903225806&#4427.002000000000002&#4423.02903225806451, !- Feature Value 24
  EPWDesignHeatingDrybulb,                !- Feature Name 25
  Double,                                 !- Feature Data Type 25
  12.02,                                  !- Feature Value 25
  EPWDesignHeatingWindspeed,              !- Feature Name 26
  Double,                                 !- Feature Data Type 26
  2.8062500000000004,                     !- Feature Value 26
  EPWDesignCoolingDrybulb,                !- Feature Name 27
  Double,                                 !- Feature Data Type 27
  91.939999999999998,                     !- Feature Value 27
  EPWDesignCoolingWetbulb,                !- Feature Name 28
  Double,                                 !- Feature Data Type 28
  59.95131430195849,                      !- Feature Value 28
  EPWDesignCoolingHumidityRatio,          !- Feature Name 29
  Double,                                 !- Feature Data Type 29
  0.0059161086834698092,                  !- Feature Value 29
  EPWDesignCoolingWindspeed,              !- Feature Name 30
  Double,                                 !- Feature Data Type 30
  3.7999999999999989,                     !- Feature Value 30
  EPWDesignDailyTemperatureRange,         !- Feature Name 31
  Double,                                 !- Feature Data Type 31
  24.915483870967748,                     !- Feature Value 31
  EPWDesignDehumidDrybulb,                !- Feature Name 32
  Double,                                 !- Feature Data Type 32
  67.996785714285721,                     !- Feature Value 32
  EPWDesignDehumidHumidityRatio,          !- Feature Name 33
  Double,                                 !- Feature Data Type 33
  0.012133744170488724,                   !- Feature Value 33
  EPWDesignCoolingDirectNormal,           !- Feature Name 34
  Double,                                 !- Feature Data Type 34
  985,                                    !- Feature Value 34
  EPWDesignCoolingDiffuseHorizontal,      !- Feature Name 35
  Double,                                 !- Feature Data Type 35
  84;                                     !- Feature Value 35

OS:YearDescription,
  {d19def89-0f52-45fc-83d8-2e735bf3e529}, !- Handle
  ,                                       !- Calendar Year
  Monday;                                 !- Day of Week for Start Day

OS:Site,
  {fe75ca16-c124-4faa-8d52-6705816515f5}, !- Handle
  Denver Intl Ap_CO_USA,                  !- Name
  39.83,                                  !- Latitude {deg}
  -104.65,                                !- Longitude {deg}
  -7,                                     !- Time Zone {hr}
  1650,                                   !- Elevation {m}
  Suburbs;                                !- Terrain

OS:ClimateZones,
  {2756f8f7-fd86-42c5-9329-3581bdb41e7a}, !- Handle
  ,                                       !- Active Institution
  ,                                       !- Active Year
  ,                                       !- Climate Zone Institution Name 1
  ,                                       !- Climate Zone Document Name 1
  ,                                       !- Climate Zone Document Year 1
  ,                                       !- Climate Zone Value 1
  Building America,                       !- Climate Zone Institution Name 2
  ,                                       !- Climate Zone Document Name 2
  0,                                      !- Climate Zone Document Year 2
  Cold;                                   !- Climate Zone Value 2

OS:Site:WaterMainsTemperature,
  {98b8081d-8f83-4c3f-99af-443e0cabe5a6}, !- Handle
  Correlation,                            !- Calculation Method
  ,                                       !- Temperature Schedule Name
  10.8753424657535,                       !- Annual Average Outdoor Air Temperature {C}
  23.1524007936508;                       !- Maximum Difference In Monthly Average Outdoor Air Temperatures {deltaC}

OS:RunPeriodControl:DaylightSavingTime,
  {d68e4f3d-3d76-4d5d-815c-dab32ea1b949}, !- Handle
  4/7,                                    !- Start Date
  10/26;                                  !- End Date

OS:Site:GroundTemperature:Deep,
  {01b775bd-ba0f-4872-89b3-a6bb371c20f9}, !- Handle
  10.8753424657535,                       !- January Deep Ground Temperature {C}
  10.8753424657535,                       !- February Deep Ground Temperature {C}
  10.8753424657535,                       !- March Deep Ground Temperature {C}
  10.8753424657535,                       !- April Deep Ground Temperature {C}
  10.8753424657535,                       !- May Deep Ground Temperature {C}
  10.8753424657535,                       !- June Deep Ground Temperature {C}
  10.8753424657535,                       !- July Deep Ground Temperature {C}
  10.8753424657535,                       !- August Deep Ground Temperature {C}
  10.8753424657535,                       !- September Deep Ground Temperature {C}
  10.8753424657535,                       !- October Deep Ground Temperature {C}
  10.8753424657535,                       !- November Deep Ground Temperature {C}
  10.8753424657535;                       !- December Deep Ground Temperature {C}

OS:ThermalZone,
  {7dfa7ef5-a115-4cf7-b2b3-48e19d0c787c}, !- Handle
  living zone,                            !- Name
  ,                                       !- Multiplier
  ,                                       !- Ceiling Height {m}
  ,                                       !- Volume {m3}
  ,                                       !- Floor Area {m2}
  ,                                       !- Zone Inside Convection Algorithm
  ,                                       !- Zone Outside Convection Algorithm
  ,                                       !- Zone Conditioning Equipment List Name
  {402fc575-913d-4f54-ac31-0170cf6c8e1d}, !- Zone Air Inlet Port List
  {6aee6eea-6cb1-4bae-b74f-2619452e5b7c}, !- Zone Air Exhaust Port List
  {add3dfa5-81f1-403a-9599-eb8999977142}, !- Zone Air Node Name
  {000079d2-75e1-4c1e-89d9-676281ff6a3f}, !- Zone Return Air Port List
  ,                                       !- Primary Daylighting Control Name
  ,                                       !- Fraction of Zone Controlled by Primary Daylighting Control
  ,                                       !- Secondary Daylighting Control Name
  ,                                       !- Fraction of Zone Controlled by Secondary Daylighting Control
  ,                                       !- Illuminance Map Name
  ,                                       !- Group Rendering Name
  {418166d1-8801-4d14-8119-d787634de423}, !- Thermostat Name
  No;                                     !- Use Ideal Air Loads

OS:Node,
  {66b04b14-57be-48b3-a619-16ffbd09736c}, !- Handle
  Node 1,                                 !- Name
  {add3dfa5-81f1-403a-9599-eb8999977142}, !- Inlet Port
  ;                                       !- Outlet Port

OS:Connection,
  {add3dfa5-81f1-403a-9599-eb8999977142}, !- Handle
  {6c9015e3-5ca0-407e-928d-791e8c260bd3}, !- Name
  {7dfa7ef5-a115-4cf7-b2b3-48e19d0c787c}, !- Source Object
  11,                                     !- Outlet Port
  {66b04b14-57be-48b3-a619-16ffbd09736c}, !- Target Object
  2;                                      !- Inlet Port

OS:PortList,
  {402fc575-913d-4f54-ac31-0170cf6c8e1d}, !- Handle
  {9d0bfc7c-50d7-4761-b67b-e310997f2a79}, !- Name
  {7dfa7ef5-a115-4cf7-b2b3-48e19d0c787c}, !- HVAC Component
  {16562dff-7717-4bf4-8853-e9ff703c6f56}; !- Port 1

OS:PortList,
  {6aee6eea-6cb1-4bae-b74f-2619452e5b7c}, !- Handle
  {32669eeb-0541-468c-9c19-ae25ad8e4aa6}, !- Name
  {7dfa7ef5-a115-4cf7-b2b3-48e19d0c787c}; !- HVAC Component

OS:PortList,
  {000079d2-75e1-4c1e-89d9-676281ff6a3f}, !- Handle
  {2e012c67-1cc8-409a-a98c-359645d40f61}, !- Name
  {7dfa7ef5-a115-4cf7-b2b3-48e19d0c787c}, !- HVAC Component
  {8bc9a634-1042-4804-b634-aeef75d3fe85}; !- Port 1

OS:Sizing:Zone,
  {0e05c338-e6f1-43d9-b51b-3fad1e60cf28}, !- Handle
  {7dfa7ef5-a115-4cf7-b2b3-48e19d0c787c}, !- Zone or ZoneList Name
  SupplyAirTemperature,                   !- Zone Cooling Design Supply Air Temperature Input Method
  14,                                     !- Zone Cooling Design Supply Air Temperature {C}
  11.11,                                  !- Zone Cooling Design Supply Air Temperature Difference {deltaC}
  SupplyAirTemperature,                   !- Zone Heating Design Supply Air Temperature Input Method
  40,                                     !- Zone Heating Design Supply Air Temperature {C}
  11.11,                                  !- Zone Heating Design Supply Air Temperature Difference {deltaC}
  0.0085,                                 !- Zone Cooling Design Supply Air Humidity Ratio {kg-H2O/kg-air}
  0.008,                                  !- Zone Heating Design Supply Air Humidity Ratio {kg-H2O/kg-air}
  ,                                       !- Zone Heating Sizing Factor
  ,                                       !- Zone Cooling Sizing Factor
  DesignDay,                              !- Cooling Design Air Flow Method
  ,                                       !- Cooling Design Air Flow Rate {m3/s}
  ,                                       !- Cooling Minimum Air Flow per Zone Floor Area {m3/s-m2}
  ,                                       !- Cooling Minimum Air Flow {m3/s}
  ,                                       !- Cooling Minimum Air Flow Fraction
  DesignDay,                              !- Heating Design Air Flow Method
  ,                                       !- Heating Design Air Flow Rate {m3/s}
  ,                                       !- Heating Maximum Air Flow per Zone Floor Area {m3/s-m2}
  ,                                       !- Heating Maximum Air Flow {m3/s}
  ,                                       !- Heating Maximum Air Flow Fraction
  ,                                       !- Design Zone Air Distribution Effectiveness in Cooling Mode
  ,                                       !- Design Zone Air Distribution Effectiveness in Heating Mode
  No,                                     !- Account for Dedicated Outdoor Air System
  NeutralSupplyAir,                       !- Dedicated Outdoor Air System Control Strategy
  autosize,                               !- Dedicated Outdoor Air Low Setpoint Temperature for Design {C}
  autosize;                               !- Dedicated Outdoor Air High Setpoint Temperature for Design {C}

OS:ZoneHVAC:EquipmentList,
  {5418b997-cbd1-4509-a63a-db61c6732228}, !- Handle
  Zone HVAC Equipment List 1,             !- Name
  {7dfa7ef5-a115-4cf7-b2b3-48e19d0c787c}, !- Thermal Zone
  SequentialLoad,                         !- Load Distribution Scheme
  {6d0a3018-91ce-41b7-883d-3d19ba98a30f}, !- Zone Equipment 1
  2,                                      !- Zone Equipment Cooling Sequence 1
  2,                                      !- Zone Equipment Heating or No-Load Sequence 1
  ,                                       !- Zone Equipment Sequential Cooling Fraction 1
  ,                                       !- Zone Equipment Sequential Heating Fraction 1
  {751972d9-b039-494d-8432-b87fac25d8f5}, !- Zone Equipment 2
  1,                                      !- Zone Equipment Cooling Sequence 2
  1,                                      !- Zone Equipment Heating or No-Load Sequence 2
  ,                                       !- Zone Equipment Sequential Cooling Fraction 2
  ;                                       !- Zone Equipment Sequential Heating Fraction 2

OS:ThermalZone,
  {c7bd0f11-a731-48ee-b5f0-dabed03e8912}, !- Handle
  garage zone,                            !- Name
  ,                                       !- Multiplier
  ,                                       !- Ceiling Height {m}
  ,                                       !- Volume {m3}
  ,                                       !- Floor Area {m2}
  ,                                       !- Zone Inside Convection Algorithm
  ,                                       !- Zone Outside Convection Algorithm
  ,                                       !- Zone Conditioning Equipment List Name
  {57f3caa0-2ca5-4d08-b1a9-1f9da7395cff}, !- Zone Air Inlet Port List
  {8ac3ad5c-acfe-438b-aae5-bf717e4c51df}, !- Zone Air Exhaust Port List
  {395c42bf-365f-42ec-ab1c-390fd2d546a2}, !- Zone Air Node Name
  {05c26538-9537-4685-9e56-cf0e01922dd9}, !- Zone Return Air Port List
  ,                                       !- Primary Daylighting Control Name
  ,                                       !- Fraction of Zone Controlled by Primary Daylighting Control
  ,                                       !- Secondary Daylighting Control Name
  ,                                       !- Fraction of Zone Controlled by Secondary Daylighting Control
  ,                                       !- Illuminance Map Name
  ,                                       !- Group Rendering Name
  ,                                       !- Thermostat Name
  No;                                     !- Use Ideal Air Loads

OS:Node,
  {d3ec9544-e78a-4c2d-b9bf-61170011feb5}, !- Handle
  Node 2,                                 !- Name
  {395c42bf-365f-42ec-ab1c-390fd2d546a2}, !- Inlet Port
  ;                                       !- Outlet Port

OS:Connection,
  {395c42bf-365f-42ec-ab1c-390fd2d546a2}, !- Handle
  {dff01844-8c83-40ed-9936-26697c34bbe0}, !- Name
  {c7bd0f11-a731-48ee-b5f0-dabed03e8912}, !- Source Object
  11,                                     !- Outlet Port
  {d3ec9544-e78a-4c2d-b9bf-61170011feb5}, !- Target Object
  2;                                      !- Inlet Port

OS:PortList,
  {57f3caa0-2ca5-4d08-b1a9-1f9da7395cff}, !- Handle
  {1e476555-44d3-4759-8a4c-c09d39b5ce20}, !- Name
  {c7bd0f11-a731-48ee-b5f0-dabed03e8912}; !- HVAC Component

OS:PortList,
  {8ac3ad5c-acfe-438b-aae5-bf717e4c51df}, !- Handle
  {d2e15bbd-cfe9-4d9d-af18-651ef66f69c4}, !- Name
  {c7bd0f11-a731-48ee-b5f0-dabed03e8912}; !- HVAC Component

OS:PortList,
  {05c26538-9537-4685-9e56-cf0e01922dd9}, !- Handle
  {757455e7-74d4-4592-8dd4-fb3d6fe7fdba}, !- Name
  {c7bd0f11-a731-48ee-b5f0-dabed03e8912}; !- HVAC Component

OS:Sizing:Zone,
  {77c1c7f1-d9f6-45f3-b6ac-2a068e713a28}, !- Handle
  {c7bd0f11-a731-48ee-b5f0-dabed03e8912}, !- Zone or ZoneList Name
  SupplyAirTemperature,                   !- Zone Cooling Design Supply Air Temperature Input Method
  14,                                     !- Zone Cooling Design Supply Air Temperature {C}
  11.11,                                  !- Zone Cooling Design Supply Air Temperature Difference {deltaC}
  SupplyAirTemperature,                   !- Zone Heating Design Supply Air Temperature Input Method
  40,                                     !- Zone Heating Design Supply Air Temperature {C}
  11.11,                                  !- Zone Heating Design Supply Air Temperature Difference {deltaC}
  0.0085,                                 !- Zone Cooling Design Supply Air Humidity Ratio {kg-H2O/kg-air}
  0.008,                                  !- Zone Heating Design Supply Air Humidity Ratio {kg-H2O/kg-air}
  ,                                       !- Zone Heating Sizing Factor
  ,                                       !- Zone Cooling Sizing Factor
  DesignDay,                              !- Cooling Design Air Flow Method
  ,                                       !- Cooling Design Air Flow Rate {m3/s}
  ,                                       !- Cooling Minimum Air Flow per Zone Floor Area {m3/s-m2}
  ,                                       !- Cooling Minimum Air Flow {m3/s}
  ,                                       !- Cooling Minimum Air Flow Fraction
  DesignDay,                              !- Heating Design Air Flow Method
  ,                                       !- Heating Design Air Flow Rate {m3/s}
  ,                                       !- Heating Maximum Air Flow per Zone Floor Area {m3/s-m2}
  ,                                       !- Heating Maximum Air Flow {m3/s}
  ,                                       !- Heating Maximum Air Flow Fraction
  ,                                       !- Design Zone Air Distribution Effectiveness in Cooling Mode
  ,                                       !- Design Zone Air Distribution Effectiveness in Heating Mode
  No,                                     !- Account for Dedicated Outdoor Air System
  NeutralSupplyAir,                       !- Dedicated Outdoor Air System Control Strategy
  autosize,                               !- Dedicated Outdoor Air Low Setpoint Temperature for Design {C}
  autosize;                               !- Dedicated Outdoor Air High Setpoint Temperature for Design {C}

OS:ZoneHVAC:EquipmentList,
  {48c7a6f1-be2f-496d-aaa9-7f4894e23fee}, !- Handle
  Zone HVAC Equipment List 2,             !- Name
  {c7bd0f11-a731-48ee-b5f0-dabed03e8912}; !- Thermal Zone

OS:Space,
  {948203af-60be-4c5e-8719-1612fb92f003}, !- Handle
  garage space,                           !- Name
  {0a94e343-1175-4c69-be01-7e668d400a4a}, !- Space Type Name
  ,                                       !- Default Construction Set Name
  ,                                       !- Default Schedule Set Name
  -0,                                     !- Direction of Relative North {deg}
  0,                                      !- X Origin {m}
  0,                                      !- Y Origin {m}
  0,                                      !- Z Origin {m}
  ,                                       !- Building Story Name
  {c7bd0f11-a731-48ee-b5f0-dabed03e8912}; !- Thermal Zone Name

OS:Surface,
  {30c3476a-e346-40d6-9f24-c5c4d083d7e7}, !- Handle
  Surface 1,                              !- Name
  Floor,                                  !- Surface Type
  {b22ca54a-7371-4114-b725-e1ab2fe50bd1}, !- Construction Name
  {948203af-60be-4c5e-8719-1612fb92f003}, !- Space Name
  Foundation,                             !- Outside Boundary Condition
  {ad98d4a9-1fa2-4e66-bf2a-1b7c55e4b175}, !- Outside Boundary Condition Object
  NoSun,                                  !- Sun Exposure
  NoWind,                                 !- Wind Exposure
  ,                                       !- View Factor to Ground
  ,                                       !- Number of Vertices
  12.4316830995045, -3.6576, 0,           !- X,Y,Z Vertex 1 {m}
  12.4316830995045, 3.6576, 0,            !- X,Y,Z Vertex 2 {m}
  16.0892830995045, 3.6576, 0,            !- X,Y,Z Vertex 3 {m}
  16.0892830995045, -3.6576, 0;           !- X,Y,Z Vertex 4 {m}

OS:Surface,
  {3e5127f0-96cf-4eaf-a1d2-736b5af355c2}, !- Handle
  Surface 2,                              !- Name
  Wall,                                   !- Surface Type
  {00c41c5f-61fb-454a-8812-ecad6d29d967}, !- Construction Name
  {948203af-60be-4c5e-8719-1612fb92f003}, !- Space Name
  Surface,                                !- Outside Boundary Condition
  {dd0819f1-aa1d-4f05-97b1-e5873fdaa944}, !- Outside Boundary Condition Object
  NoSun,                                  !- Sun Exposure
  NoWind,                                 !- Wind Exposure
  ,                                       !- View Factor to Ground
  ,                                       !- Number of Vertices
  12.4316830995045, 3.6576, 2.4384,       !- X,Y,Z Vertex 1 {m}
  12.4316830995045, 3.6576, 0,            !- X,Y,Z Vertex 2 {m}
  12.4316830995045, 0, 0,                 !- X,Y,Z Vertex 3 {m}
  12.4316830995045, 0, 2.4384;            !- X,Y,Z Vertex 4 {m}

OS:Surface,
  {91afc36d-2bd4-490b-b0dc-03280296359a}, !- Handle
  Surface 3,                              !- Name
  Wall,                                   !- Surface Type
  {00c41c5f-61fb-454a-8812-ecad6d29d967}, !- Construction Name
  {948203af-60be-4c5e-8719-1612fb92f003}, !- Space Name
  Surface,                                !- Outside Boundary Condition
  {adf81cf9-846c-4db0-953b-a6a1bd383f43}, !- Outside Boundary Condition Object
  NoSun,                                  !- Sun Exposure
  NoWind,                                 !- Wind Exposure
  ,                                       !- View Factor to Ground
  ,                                       !- Number of Vertices
  16.0892830995045, 3.6576, 2.4384,       !- X,Y,Z Vertex 1 {m}
  16.0892830995045, 3.6576, 0,            !- X,Y,Z Vertex 2 {m}
  12.4316830995045, 3.6576, 0,            !- X,Y,Z Vertex 3 {m}
  12.4316830995045, 3.6576, 2.4384;       !- X,Y,Z Vertex 4 {m}

OS:Surface,
  {a29e1422-b9f2-4569-b367-59065b61c056}, !- Handle
  Surface 4,                              !- Name
  Wall,                                   !- Surface Type
  {bd811a84-9e6f-4fba-beab-fd6a5e4f2df8}, !- Construction Name
  {948203af-60be-4c5e-8719-1612fb92f003}, !- Space Name
  Outdoors,                               !- Outside Boundary Condition
  ,                                       !- Outside Boundary Condition Object
  SunExposed,                             !- Sun Exposure
  WindExposed,                            !- Wind Exposure
  ,                                       !- View Factor to Ground
  ,                                       !- Number of Vertices
  16.0892830995045, -3.6576, 2.4384,      !- X,Y,Z Vertex 1 {m}
  16.0892830995045, -3.6576, 0,           !- X,Y,Z Vertex 2 {m}
  16.0892830995045, 3.6576, 0,            !- X,Y,Z Vertex 3 {m}
  16.0892830995045, 3.6576, 2.4384;       !- X,Y,Z Vertex 4 {m}

OS:Surface,
  {3a71fdb5-4989-427e-8cb6-a58ac2b286f5}, !- Handle
  Surface 5,                              !- Name