!- NOTE: Auto-generated from /test/osw_files/SFD_2story_CS_UA_GRG_ASHPV_FuelTanklessWH.osw

OS:Version,
  {c3504b5f-f237-4e6e-9329-4281b9aeefd4}, !- Handle
  2.9.1;                                  !- Version Identifier

OS:SimulationControl,
  {98e3bb61-f2b9-45fc-a0f0-26e8bd1c942d}, !- Handle
  ,                                       !- Do Zone Sizing Calculation
  ,                                       !- Do System Sizing Calculation
  ,                                       !- Do Plant Sizing Calculation
  No;                                     !- Run Simulation for Sizing Periods

OS:Timestep,
  {206f572f-9791-4b30-9cd9-3d9bcdf40b3d}, !- Handle
  6;                                      !- Number of Timesteps per Hour

OS:ShadowCalculation,
  {067f73cc-87af-4092-b72d-b527e45a8576}, !- Handle
  20,                                     !- Calculation Frequency
  200;                                    !- Maximum Figures in Shadow Overlap Calculations

OS:SurfaceConvectionAlgorithm:Outside,
  {6c8518f4-ea74-42a8-a8b3-ad8773a157a2}, !- Handle
  DOE-2;                                  !- Algorithm

OS:SurfaceConvectionAlgorithm:Inside,
  {ca04f561-50d0-40ea-93ed-b91a7854e344}, !- Handle
  TARP;                                   !- Algorithm

OS:ZoneCapacitanceMultiplier:ResearchSpecial,
  {729ba887-b051-4d64-abcb-c7fb83b3f2b8}, !- Handle
  ,                                       !- Temperature Capacity Multiplier
  15,                                     !- Humidity Capacity Multiplier
  ;                                       !- Carbon Dioxide Capacity Multiplier

OS:RunPeriod,
  {943fb00c-79e4-43f5-ac4b-e74998445df3}, !- Handle
  Run Period 1,                           !- Name
  1,                                      !- Begin Month
  1,                                      !- Begin Day of Month
  12,                                     !- End Month
  31,                                     !- End Day of Month
  ,                                       !- Use Weather File Holidays and Special Days
  ,                                       !- Use Weather File Daylight Saving Period
  ,                                       !- Apply Weekend Holiday Rule
  ,                                       !- Use Weather File Rain Indicators
  ,                                       !- Use Weather File Snow Indicators
  ;                                       !- Number of Times Runperiod to be Repeated

OS:YearDescription,
  {c11ce247-6ef4-45a8-b96f-1a0624c51c0a}, !- Handle
  2007,                                   !- Calendar Year
  ,                                       !- Day of Week for Start Day
  ;                                       !- Is Leap Year

OS:WeatherFile,
  {cf655768-3834-4358-a554-e0972d76e8f3}, !- Handle
  Denver Intl Ap,                         !- City
  CO,                                     !- State Province Region
  USA,                                    !- Country
  TMY3,                                   !- Data Source
  725650,                                 !- WMO Number
  39.83,                                  !- Latitude {deg}
  -104.65,                                !- Longitude {deg}
  -7,                                     !- Time Zone {hr}
  1650,                                   !- Elevation {m}
  file:../weather/USA_CO_Denver.Intl.AP.725650_TMY3.epw, !- Url
  E23378AA;                               !- Checksum

OS:AdditionalProperties,
  {f3928f59-1831-42f4-8ab0-ce7e37bdbe72}, !- Handle
  {cf655768-3834-4358-a554-e0972d76e8f3}, !- Object Name
  EPWHeaderCity,                          !- Feature Name 1
  String,                                 !- Feature Data Type 1
  Denver Intl Ap,                         !- Feature Value 1
  EPWHeaderState,                         !- Feature Name 2
  String,                                 !- Feature Data Type 2
  CO,                                     !- Feature Value 2
  EPWHeaderCountry,                       !- Feature Name 3
  String,                                 !- Feature Data Type 3
  USA,                                    !- Feature Value 3
  EPWHeaderDataSource,                    !- Feature Name 4
  String,                                 !- Feature Data Type 4
  TMY3,                                   !- Feature Value 4
  EPWHeaderStation,                       !- Feature Name 5
  String,                                 !- Feature Data Type 5
  725650,                                 !- Feature Value 5
  EPWHeaderLatitude,                      !- Feature Name 6
  Double,                                 !- Feature Data Type 6
  39.829999999999998,                     !- Feature Value 6
  EPWHeaderLongitude,                     !- Feature Name 7
  Double,                                 !- Feature Data Type 7
  -104.65000000000001,                    !- Feature Value 7
  EPWHeaderTimezone,                      !- Feature Name 8
  Double,                                 !- Feature Data Type 8
  -7,                                     !- Feature Value 8
  EPWHeaderAltitude,                      !- Feature Name 9
  Double,                                 !- Feature Data Type 9
  5413.3858267716532,                     !- Feature Value 9
  EPWHeaderLocalPressure,                 !- Feature Name 10
  Double,                                 !- Feature Data Type 10
  0.81937567683596546,                    !- Feature Value 10
  EPWHeaderRecordsPerHour,                !- Feature Name 11
  Double,                                 !- Feature Data Type 11
  0,                                      !- Feature Value 11
  EPWDataAnnualAvgDrybulb,                !- Feature Name 12
  Double,                                 !- Feature Data Type 12
  51.575616438356228,                     !- Feature Value 12
  EPWDataAnnualMinDrybulb,                !- Feature Name 13
  Double,                                 !- Feature Data Type 13
  -2.9200000000000017,                    !- Feature Value 13
  EPWDataAnnualMaxDrybulb,                !- Feature Name 14
  Double,                                 !- Feature Data Type 14
  104,                                    !- Feature Value 14
  EPWDataCDD50F,                          !- Feature Name 15
  Double,                                 !- Feature Data Type 15
  3072.2925000000005,                     !- Feature Value 15
  EPWDataCDD65F,                          !- Feature Name 16
  Double,                                 !- Feature Data Type 16
  883.62000000000035,                     !- Feature Value 16
  EPWDataHDD50F,                          !- Feature Name 17
  Double,                                 !- Feature Data Type 17
  2497.1925000000001,                     !- Feature Value 17
  EPWDataHDD65F,                          !- Feature Name 18
  Double,                                 !- Feature Data Type 18
  5783.5200000000013,                     !- Feature Value 18
  EPWDataAnnualAvgWindspeed,              !- Feature Name 19
  Double,                                 !- Feature Data Type 19
  3.9165296803649667,                     !- Feature Value 19
  EPWDataMonthlyAvgDrybulbs,              !- Feature Name 20
  String,                                 !- Feature Data Type 20
  33.4191935483871&#4431.90142857142857&#4443.02620967741937&#4442.48624999999999&#4459.877741935483854&#4473.57574999999997&#4472.07975806451608&#4472.70008064516134&#4466.49200000000006&#4450.079112903225806&#4437.218250000000005&#4434.582177419354835, !- Feature Value 20
  EPWDataGroundMonthlyTemps,              !- Feature Name 21
  String,                                 !- Feature Data Type 21
  44.08306285945173&#4440.89570904991865&#4440.64045432632048&#4442.153016571250646&#4448.225111118704206&#4454.268919273837525&#4459.508577937551024&#4462.82777283423508&#4463.10975667174995&#4460.41014950381947&#4455.304105212311526&#4449.445696474514364, !- Feature Value 21
  EPWDataWSF,                             !- Feature Name 22
  Double,                                 !- Feature Data Type 22
  0.58999999999999997,                    !- Feature Value 22
  EPWDataMonthlyAvgDailyHighDrybulbs,     !- Feature Name 23
  String,                                 !- Feature Data Type 23
  47.41032258064516&#4446.58642857142857&#4455.15032258064517&#4453.708&#4472.80193548387098&#4488.67600000000002&#4486.1858064516129&#4485.87225806451613&#4482.082&#4463.18064516129033&#4448.73400000000001&#4448.87935483870968, !- Feature Value 23
  EPWDataMonthlyAvgDailyLowDrybulbs,      !- Feature Name 24
  String,                                 !- Feature Data Type 24
  19.347741935483874&#4419.856428571428573&#4430.316129032258065&#4431.112&#4447.41612903225806&#4457.901999999999994&#4459.063870967741934&#4460.956774193548384&#4452.352000000000004&#4438.41612903225806&#4427.002000000000002&#4423.02903225806451, !- Feature Value 24
  EPWDesignHeatingDrybulb,                !- Feature Name 25
  Double,                                 !- Feature Data Type 25
  12.02,                                  !- Feature Value 25
  EPWDesignHeatingWindspeed,              !- Feature Name 26
  Double,                                 !- Feature Data Type 26
  2.8062500000000004,                     !- Feature Value 26
  EPWDesignCoolingDrybulb,                !- Feature Name 27
  Double,                                 !- Feature Data Type 27
  91.939999999999998,                     !- Feature Value 27
  EPWDesignCoolingWetbulb,                !- Feature Name 28
  Double,                                 !- Feature Data Type 28
  59.95131430195849,                      !- Feature Value 28
  EPWDesignCoolingHumidityRatio,          !- Feature Name 29
  Double,                                 !- Feature Data Type 29
  0.0059161086834698092,                  !- Feature Value 29
  EPWDesignCoolingWindspeed,              !- Feature Name 30
  Double,                                 !- Feature Data Type 30
  3.7999999999999989,                     !- Feature Value 30
  EPWDesignDailyTemperatureRange,         !- Feature Name 31
  Double,                                 !- Feature Data Type 31
  24.915483870967748,                     !- Feature Value 31
  EPWDesignDehumidDrybulb,                !- Feature Name 32
  Double,                                 !- Feature Data Type 32
  67.996785714285721,                     !- Feature Value 32
  EPWDesignDehumidHumidityRatio,          !- Feature Name 33
  Double,                                 !- Feature Data Type 33
  0.012133744170488724,                   !- Feature Value 33
  EPWDesignCoolingDirectNormal,           !- Feature Name 34
  Double,                                 !- Feature Data Type 34
  985,                                    !- Feature Value 34
  EPWDesignCoolingDiffuseHorizontal,      !- Feature Name 35
  Double,                                 !- Feature Data Type 35
  84;                                     !- Feature Value 35

OS:Site,
  {af83c6f0-26dd-445a-8127-f98b8ab9ab8d}, !- Handle
  Denver Intl Ap_CO_USA,                  !- Name
  39.83,                                  !- Latitude {deg}
  -104.65,                                !- Longitude {deg}
  -7,                                     !- Time Zone {hr}
  1650,                                   !- Elevation {m}
  Suburbs;                                !- Terrain

OS:ClimateZones,
  {5c4b4294-d5c1-4fff-a82b-a356aebfb17a}, !- Handle
  ,                                       !- Active Institution
  ,                                       !- Active Year
  ,                                       !- Climate Zone Institution Name 1
  ,                                       !- Climate Zone Document Name 1
  ,                                       !- Climate Zone Document Year 1
  ,                                       !- Climate Zone Value 1
  Building America,                       !- Climate Zone Institution Name 2
  ,                                       !- Climate Zone Document Name 2
  0,                                      !- Climate Zone Document Year 2
  Cold;                                   !- Climate Zone Value 2

OS:Site:WaterMainsTemperature,
  {1fc72b4c-87c1-450a-861b-38ff8db2e517}, !- Handle
  Correlation,                            !- Calculation Method
  ,                                       !- Temperature Schedule Name
  10.8753424657535,                       !- Annual Average Outdoor Air Temperature {C}
  23.1524007936508;                       !- Maximum Difference In Monthly Average Outdoor Air Temperatures {deltaC}

OS:RunPeriodControl:DaylightSavingTime,
  {ca9b0760-7b15-40c5-a049-1a390edabef2}, !- Handle
  3/12,                                   !- Start Date
  11/5;                                   !- End Date

OS:Site:GroundTemperature:Deep,
  {027ed47e-d5fa-459a-95f2-2b61026a8bc7}, !- Handle
  10.8753424657535,                       !- January Deep Ground Temperature {C}
  10.8753424657535,                       !- February Deep Ground Temperature {C}
  10.8753424657535,                       !- March Deep Ground Temperature {C}
  10.8753424657535,                       !- April Deep Ground Temperature {C}
  10.8753424657535,                       !- May Deep Ground Temperature {C}
  10.8753424657535,                       !- June Deep Ground Temperature {C}
  10.8753424657535,                       !- July Deep Ground Temperature {C}
  10.8753424657535,                       !- August Deep Ground Temperature {C}
  10.8753424657535,                       !- September Deep Ground Temperature {C}
  10.8753424657535,                       !- October Deep Ground Temperature {C}
  10.8753424657535,                       !- November Deep Ground Temperature {C}
  10.8753424657535;                       !- December Deep Ground Temperature {C}

OS:Building,
  {7674f461-a48a-4e1f-93ee-8f3506141f3b}, !- Handle
  Building 1,                             !- Name
  ,                                       !- Building Sector Type
  315,                                    !- North Axis {deg}
  ,                                       !- Nominal Floor to Floor Height {m}
  ,                                       !- Space Type Name
  ,                                       !- Default Construction Set Name
  ,                                       !- Default Schedule Set Name
  2,                                      !- Standards Number of Stories
  2,                                      !- Standards Number of Above Ground Stories
  ,                                       !- Standards Template
  singlefamilydetached,                   !- Standards Building Type
  1;                                      !- Standards Number of Living Units

OS:AdditionalProperties,
  {2f3c64a1-2a51-4023-a903-19a99d765b40}, !- Handle
  {7674f461-a48a-4e1f-93ee-8f3506141f3b}, !- Object Name
  Total Units Modeled,                    !- Feature Name 1
  Integer,                                !- Feature Data Type 1
  1,                                      !- Feature Value 1
  has_water_heater_flue,                  !- Feature Name 2
  Boolean,                                !- Feature Data Type 2
  false;                                  !- Feature Value 2

OS:ThermalZone,
  {ddd1544c-6342-4739-9ca3-d2589670e6fc}, !- Handle
  living zone,                            !- Name
  ,                                       !- Multiplier
  ,                                       !- Ceiling Height {m}
  ,                                       !- Volume {m3}
  ,                                       !- Floor Area {m2}
  ,                                       !- Zone Inside Convection Algorithm
  ,                                       !- Zone Outside Convection Algorithm
  ,                                       !- Zone Conditioning Equipment List Name
  {dd0e3a35-c05d-4b11-a562-d3b286bd778a}, !- Zone Air Inlet Port List
  {52a4d004-1f66-4dde-8ce9-342b255437b9}, !- Zone Air Exhaust Port List
  {ec7ca16c-1bd9-466c-a693-44a9a7db78c7}, !- Zone Air Node Name
  {40d36aed-858e-412e-a1e0-8743e11f8574}, !- Zone Return Air Port List
  ,                                       !- Primary Daylighting Control Name
  ,                                       !- Fraction of Zone Controlled by Primary Daylighting Control
  ,                                       !- Secondary Daylighting Control Name
  ,                                       !- Fraction of Zone Controlled by Secondary Daylighting Control
  ,                                       !- Illuminance Map Name
  ,                                       !- Group Rendering Name
  {05ca1ce2-3699-468f-bbf0-76fcbebb2075}, !- Thermostat Name
  No;                                     !- Use Ideal Air Loads

OS:Node,
  {d0ee4899-f34d-42ef-bc76-8127fb28c4d2}, !- Handle
  Node 1,                                 !- Name
  {ec7ca16c-1bd9-466c-a693-44a9a7db78c7}, !- Inlet Port
  ;                                       !- Outlet Port

OS:Connection,
  {ec7ca16c-1bd9-466c-a693-44a9a7db78c7}, !- Handle
  {7589af0b-bee9-4e4f-a9cc-fd30d6b02a3c}, !- Name
  {ddd1544c-6342-4739-9ca3-d2589670e6fc}, !- Source Object
  11,                                     !- Outlet Port
  {d0ee4899-f34d-42ef-bc76-8127fb28c4d2}, !- Target Object
  2;                                      !- Inlet Port

OS:PortList,
  {dd0e3a35-c05d-4b11-a562-d3b286bd778a}, !- Handle
  {039722ee-3b7d-4963-bfd9-11ab7cbcb0a2}, !- Name
  {ddd1544c-6342-4739-9ca3-d2589670e6fc}, !- HVAC Component
  {77543226-a077-40a7-8035-91791a7aa287}, !- Port 1
  {ce161609-fd5f-4246-bc77-d52a8aa0b98b}; !- Port 2

OS:PortList,
  {52a4d004-1f66-4dde-8ce9-342b255437b9}, !- Handle
  {7a79008a-2c14-4170-b173-3e25d57b6fa9}, !- Name
  {ddd1544c-6342-4739-9ca3-d2589670e6fc}; !- HVAC Component

OS:PortList,
  {40d36aed-858e-412e-a1e0-8743e11f8574}, !- Handle
  {314d010f-8806-48dc-ad5c-f1a8f957ee56}, !- Name
  {ddd1544c-6342-4739-9ca3-d2589670e6fc}, !- HVAC Component
  {8a85799a-8e04-4ccb-a10a-c10e0c37e85b}, !- Port 1
  {db714d2e-bce9-4327-a830-9c6b3d711494}; !- Port 2

OS:Sizing:Zone,
  {d7f0350f-2ce7-42c5-8d85-ec87dd041a3f}, !- Handle
  {ddd1544c-6342-4739-9ca3-d2589670e6fc}, !- Zone or ZoneList Name
  SupplyAirTemperature,                   !- Zone Cooling Design Supply Air Temperature Input Method
  14,                                     !- Zone Cooling Design Supply Air Temperature {C}
  11.11,                                  !- Zone Cooling Design Supply Air Temperature Difference {deltaC}
  SupplyAirTemperature,                   !- Zone Heating Design Supply Air Temperature Input Method
  40,                                     !- Zone Heating Design Supply Air Temperature {C}
  11.11,                                  !- Zone Heating Design Supply Air Temperature Difference {deltaC}
  0.0085,                                 !- Zone Cooling Design Supply Air Humidity Ratio {kg-H2O/kg-air}
  0.008,                                  !- Zone Heating Design Supply Air Humidity Ratio {kg-H2O/kg-air}
  ,                                       !- Zone Heating Sizing Factor
  ,                                       !- Zone Cooling Sizing Factor
  DesignDay,                              !- Cooling Design Air Flow Method
  ,                                       !- Cooling Design Air Flow Rate {m3/s}
  ,                                       !- Cooling Minimum Air Flow per Zone Floor Area {m3/s-m2}
  ,                                       !- Cooling Minimum Air Flow {m3/s}
  ,                                       !- Cooling Minimum Air Flow Fraction
  DesignDay,                              !- Heating Design Air Flow Method
  ,                                       !- Heating Design Air Flow Rate {m3/s}
  ,                                       !- Heating Maximum Air Flow per Zone Floor Area {m3/s-m2}
  ,                                       !- Heating Maximum Air Flow {m3/s}
  ,                                       !- Heating Maximum Air Flow Fraction
  ,                                       !- Design Zone Air Distribution Effectiveness in Cooling Mode
  ,                                       !- Design Zone Air Distribution Effectiveness in Heating Mode
  No,                                     !- Account for Dedicated Outdoor Air System
  NeutralSupplyAir,                       !- Dedicated Outdoor Air System Control Strategy
  autosize,                               !- Dedicated Outdoor Air Low Setpoint Temperature for Design {C}
  autosize;                               !- Dedicated Outdoor Air High Setpoint Temperature for Design {C}

OS:ZoneHVAC:EquipmentList,
  {57b61417-9798-4298-9c6f-4a0f25713957}, !- Handle
  Zone HVAC Equipment List 1,             !- Name
  {ddd1544c-6342-4739-9ca3-d2589670e6fc}, !- Thermal Zone
  SequentialLoad,                         !- Load Distribution Scheme
  {84eff2d6-da12-47f5-bf65-b60eaa7beab5}, !- Zone Equipment 1
  1,                                      !- Zone Equipment Cooling Sequence 1
  1,                                      !- Zone Equipment Heating or No-Load Sequence 1
  ,                                       !- Zone Equipment Sequential Cooling Fraction Schedule Name 1
  ,                                       !- Zone Equipment Sequential Heating Fraction Schedule Name 1
  {acb55a27-0235-4af9-b832-a8faea8d8e50}, !- Zone Equipment 2
  2,                                      !- Zone Equipment Cooling Sequence 2
  2,                                      !- Zone Equipment Heating or No-Load Sequence 2
  ,                                       !- Zone Equipment Sequential Cooling Fraction Schedule Name 2
  ;                                       !- Zone Equipment Sequential Heating Fraction Schedule Name 2

OS:ThermalZone,
  {5f3e3afd-cfb9-4f6b-b1bb-42389355ee4d}, !- Handle
  garage zone,                            !- Name
  ,                                       !- Multiplier
  ,                                       !- Ceiling Height {m}
  ,                                       !- Volume {m3}
  ,                                       !- Floor Area {m2}
  ,                                       !- Zone Inside Convection Algorithm
  ,                                       !- Zone Outside Convection Algorithm
  ,                                       !- Zone Conditioning Equipment List Name
  {34dad9fe-4633-417d-acf6-16adf9a9b709}, !- Zone Air Inlet Port List
  {ef14878f-12c8-4816-a0c5-8ed731c455f5}, !- Zone Air Exhaust Port List
  {432e7ab8-8e26-475c-b800-ddf96d64f444}, !- Zone Air Node Name
  {503c0914-4e5a-4288-8970-2a549889716d}, !- Zone Return Air Port List
  ,                                       !- Primary Daylighting Control Name
  ,                                       !- Fraction of Zone Controlled by Primary Daylighting Control
  ,                                       !- Secondary Daylighting Control Name
  ,                                       !- Fraction of Zone Controlled by Secondary Daylighting Control
  ,                                       !- Illuminance Map Name
  ,                                       !- Group Rendering Name
  ,                                       !- Thermostat Name
  No;                                     !- Use Ideal Air Loads

OS:Node,
  {56c2bfad-45b6-4512-8d72-318771d0389b}, !- Handle
  Node 2,                                 !- Name
  {432e7ab8-8e26-475c-b800-ddf96d64f444}, !- Inlet Port
  ;                                       !- Outlet Port

OS:Connection,
  {432e7ab8-8e26-475c-b800-ddf96d64f444}, !- Handle
  {bd17981a-e91b-44c3-a875-35d199ee77c2}, !- Name
  {5f3e3afd-cfb9-4f6b-b1bb-42389355ee4d}, !- Source Object
  11,                                     !- Outlet Port
  {56c2bfad-45b6-4512-8d72-318771d0389b}, !- Target Object
  2;                                      !- Inlet Port

OS:PortList,
  {34dad9fe-4633-417d-acf6-16adf9a9b709}, !- Handle
  {4123c039-a61b-4628-af70-5f945570f9b2}, !- Name
  {5f3e3afd-cfb9-4f6b-b1bb-42389355ee4d}; !- HVAC Component

OS:PortList,
  {ef14878f-12c8-4816-a0c5-8ed731c455f5}, !- Handle
  {fb76819f-521b-4f91-88cf-944005bb084d}, !- Name
  {5f3e3afd-cfb9-4f6b-b1bb-42389355ee4d}; !- HVAC Component

OS:PortList,
  {503c0914-4e5a-4288-8970-2a549889716d}, !- Handle
  {c54a654f-0647-4c71-8dda-01637fcb25a7}, !- Name
  {5f3e3afd-cfb9-4f6b-b1bb-42389355ee4d}; !- HVAC Component

OS:Sizing:Zone,
  {8be1a9fe-fc41-41fb-8f8e-7747a03113b9}, !- Handle
  {5f3e3afd-cfb9-4f6b-b1bb-42389355ee4d}, !- Zone or ZoneList Name
  SupplyAirTemperature,                   !- Zone Cooling Design Supply Air Temperature Input Method
  14,                                     !- Zone Cooling Design Supply Air Temperature {C}
  11.11,                                  !- Zone Cooling Design Supply Air Temperature Difference {deltaC}
  SupplyAirTemperature,                   !- Zone Heating Design Supply Air Temperature Input Method
  40,                                     !- Zone Heating Design Supply Air Temperature {C}
  11.11,                                  !- Zone Heating Design Supply Air Temperature Difference {deltaC}
  0.0085,                                 !- Zone Cooling Design Supply Air Humidity Ratio {kg-H2O/kg-air}
  0.008,                                  !- Zone Heating Design Supply Air Humidity Ratio {kg-H2O/kg-air}
  ,                                       !- Zone Heating Sizing Factor
  ,                                       !- Zone Cooling Sizing Factor
  DesignDay,                              !- Cooling Design Air Flow Method
  ,                                       !- Cooling Design Air Flow Rate {m3/s}
  ,                                       !- Cooling Minimum Air Flow per Zone Floor Area {m3/s-m2}
  ,                                       !- Cooling Minimum Air Flow {m3/s}
  ,                                       !- Cooling Minimum Air Flow Fraction
  DesignDay,                              !- Heating Design Air Flow Method
  ,                                       !- Heating Design Air Flow Rate {m3/s}
  ,                                       !- Heating Maximum Air Flow per Zone Floor Area {m3/s-m2}
  ,                                       !- Heating Maximum Air Flow {m3/s}
  ,                                       !- Heating Maximum Air Flow Fraction
  ,                                       !- Design Zone Air Distribution Effectiveness in Cooling Mode
  ,                                       !- Design Zone Air Distribution Effectiveness in Heating Mode
  No,                                     !- Account for Dedicated Outdoor Air System
  NeutralSupplyAir,                       !- Dedicated Outdoor Air System Control Strategy
  autosize,                               !- Dedicated Outdoor Air Low Setpoint Temperature for Design {C}
  autosize;                               !- Dedicated Outdoor Air High Setpoint Temperature for Design {C}

OS:ZoneHVAC:EquipmentList,
  {6861bd3f-6962-4b1c-ad63-9c8e3d904969}, !- Handle
  Zone HVAC Equipment List 2,             !- Name
  {5f3e3afd-cfb9-4f6b-b1bb-42389355ee4d}; !- Thermal Zone

OS:Space,
  {4cd5fc5e-554b-4416-8814-506e5b5bfdb3}, !- Handle
  garage space,                           !- Name
  {99845c05-c829-469f-b8e8-577dbf8436e4}, !- Space Type Name
  ,                                       !- Default Construction Set Name
  ,                                       !- Default Schedule Set Name
  -0,                                     !- Direction of Relative North {deg}
  0,                                      !- X Origin {m}
  0,                                      !- Y Origin {m}
  0,                                      !- Z Origin {m}
  ,                                       !- Building Story Name
  {5f3e3afd-cfb9-4f6b-b1bb-42389355ee4d}; !- Thermal Zone Name

OS:Surface,
  {98171c48-3ebb-4d56-8796-ca6bf9aac66b}, !- Handle
  Surface 1,                              !- Name
  Floor,                                  !- Surface Type
  {5d62863d-85e1-49ee-bb4f-b73887fb03cc}, !- Construction Name
  {4cd5fc5e-554b-4416-8814-506e5b5bfdb3}, !- Space Name
  Foundation,                             !- Outside Boundary Condition
  {5087e826-1a1e-41ee-9f90-2f618ab47c49}, !- Outside Boundary Condition Object
  NoSun,                                  !- Sun Exposure
  NoWind,                                 !- Wind Exposure
  ,                                       !- View Factor to Ground
  ,                                       !- Number of Vertices
  12.1802725844098, -3.6576, 0,           !- X,Y,Z Vertex 1 {m}
  12.1802725844098, 3.6576, 0,            !- X,Y,Z Vertex 2 {m}
  15.8378725844098, 3.6576, 0,            !- X,Y,Z Vertex 3 {m}
  15.8378725844098, -3.6576, 0;           !- X,Y,Z Vertex 4 {m}

OS:Surface,
  {d3026e9c-2f8e-491f-be6c-fa9a734da223}, !- Handle
  Surface 2,                              !- Name
  Wall,                                   !- Surface Type
  {33acac87-fa01-440b-9911-bf710b7385bb}, !- Construction Name
  {4cd5fc5e-554b-4416-8814-506e5b5bfdb3}, !- Space Name
  Surface,                                !- Outside Boundary Condition
  {f8eefe7f-4c8f-4f3d-be40-c05f4d3a1402}, !- Outside Boundary Condition Object
  NoSun,                                  !- Sun Exposure
  NoWind,                                 !- Wind Exposure
  ,                                       !- View Factor to Ground
  ,                                       !- Number of Vertices
  12.1802725844098, 3.6576, 2.4384,       !- X,Y,Z Vertex 1 {m}
  12.1802725844098, 3.6576, 0,            !- X,Y,Z Vertex 2 {m}
  12.1802725844098, 0, 0,                 !- X,Y,Z Vertex 3 {m}
  12.1802725844098, 0, 2.4384;            !- X,Y,Z Vertex 4 {m}

OS:Surface,
  {c4674774-bbb0-4f0e-94a7-f92e0b1da818}, !- Handle
  Surface 3,                              !- Name
  Wall,                                   !- Surface Type
  {33acac87-fa01-440b-9911-bf710b7385bb}, !- Construction Name
  {4cd5fc5e-554b-4416-8814-506e5b5bfdb3}, !- Space Name
  Surface,                                !- Outside Boundary Condition