!- NOTE: Auto-generated from /test/osw_files/SFD_2000sqft_2story_SL_GRG_UA_3Beds_2Baths_Denver_Furnace_CentralAC.osw

OS:Version,
  {4237d065-91b6-4cc1-8f62-0d9ad6450cf3}, !- Handle
  2.9.1;                                  !- Version Identifier

OS:SimulationControl,
  {3739558f-0a4b-424d-9551-a6e530148585}, !- Handle
  ,                                       !- Do Zone Sizing Calculation
  ,                                       !- Do System Sizing Calculation
  ,                                       !- Do Plant Sizing Calculation
  No;                                     !- Run Simulation for Sizing Periods

OS:Timestep,
  {ed889f8a-d7e2-423e-8453-692d23237005}, !- Handle
  6;                                      !- Number of Timesteps per Hour

OS:ShadowCalculation,
  {f60896ce-6bca-421f-8fe3-efde63ea8bfb}, !- Handle
  20,                                     !- Calculation Frequency
  200;                                    !- Maximum Figures in Shadow Overlap Calculations

OS:SurfaceConvectionAlgorithm:Outside,
  {342ac6df-b8e9-4936-a751-d7c6447419c3}, !- Handle
  DOE-2;                                  !- Algorithm

OS:SurfaceConvectionAlgorithm:Inside,
  {0a2bb1ad-56bc-43d5-8a0a-1ae40736978b}, !- Handle
  TARP;                                   !- Algorithm

OS:ZoneCapacitanceMultiplier:ResearchSpecial,
  {c64311cc-d544-41d6-8748-ac05322b910d}, !- Handle
  ,                                       !- Temperature Capacity Multiplier
  15,                                     !- Humidity Capacity Multiplier
  ;                                       !- Carbon Dioxide Capacity Multiplier

OS:RunPeriod,
  {3bc57a77-ad2c-4ed3-a30e-59dfee8f6c45}, !- Handle
  Run Period 1,                           !- Name
  1,                                      !- Begin Month
  1,                                      !- Begin Day of Month
  12,                                     !- End Month
  31,                                     !- End Day of Month
  ,                                       !- Use Weather File Holidays and Special Days
  ,                                       !- Use Weather File Daylight Saving Period
  ,                                       !- Apply Weekend Holiday Rule
  ,                                       !- Use Weather File Rain Indicators
  ,                                       !- Use Weather File Snow Indicators
  ;                                       !- Number of Times Runperiod to be Repeated

OS:YearDescription,
  {9cf1c42e-9ae6-45be-9b0f-eca638baac46}, !- Handle
  2007,                                   !- Calendar Year
  ,                                       !- Day of Week for Start Day
  ;                                       !- Is Leap Year

OS:ThermalZone,
  {c5f29c8e-2043-43e1-a33e-30c2efec6d96}, !- Handle
  living zone,                            !- Name
  ,                                       !- Multiplier
  ,                                       !- Ceiling Height {m}
  ,                                       !- Volume {m3}
  ,                                       !- Floor Area {m2}
  ,                                       !- Zone Inside Convection Algorithm
  ,                                       !- Zone Outside Convection Algorithm
  ,                                       !- Zone Conditioning Equipment List Name
  {2caed064-7ede-4643-b364-bf6bec80a8e8}, !- Zone Air Inlet Port List
  {fb858b00-beea-47b7-bd9c-f7daf43bdadd}, !- Zone Air Exhaust Port List
  {6075599a-8504-4684-b43f-4147fbd8f2bd}, !- Zone Air Node Name
  {a69088c0-fbcc-4cb9-8757-76c880a8c354}, !- Zone Return Air Port List
  ,                                       !- Primary Daylighting Control Name
  ,                                       !- Fraction of Zone Controlled by Primary Daylighting Control
  ,                                       !- Secondary Daylighting Control Name
  ,                                       !- Fraction of Zone Controlled by Secondary Daylighting Control
  ,                                       !- Illuminance Map Name
  ,                                       !- Group Rendering Name
  {845e3298-cc9d-468a-b1cd-f3dfac353a87}, !- Thermostat Name
  No;                                     !- Use Ideal Air Loads

OS:Node,
  {a7f853e1-d2e6-4049-8f4b-ef310bd41069}, !- Handle
  Node 1,                                 !- Name
  {6075599a-8504-4684-b43f-4147fbd8f2bd}, !- Inlet Port
  ;                                       !- Outlet Port

OS:Connection,
  {6075599a-8504-4684-b43f-4147fbd8f2bd}, !- Handle
  {5d1278ed-25c9-44e4-abdf-7a1be299c154}, !- Name
  {c5f29c8e-2043-43e1-a33e-30c2efec6d96}, !- Source Object
  11,                                     !- Outlet Port
  {a7f853e1-d2e6-4049-8f4b-ef310bd41069}, !- Target Object
  2;                                      !- Inlet Port

OS:PortList,
  {2caed064-7ede-4643-b364-bf6bec80a8e8}, !- Handle
  {2cc87862-7d5e-4dfc-874d-32cfeb8ac591}, !- Name
  {c5f29c8e-2043-43e1-a33e-30c2efec6d96}, !- HVAC Component
  {037b233a-2a9f-4f3e-bd7d-4565d6915b44}, !- Port 1
  {31941d7f-abb5-451c-a410-773f333d2bb7}; !- Port 2

OS:PortList,
  {fb858b00-beea-47b7-bd9c-f7daf43bdadd}, !- Handle
  {effb1411-d158-4c6e-821d-7ba83fac70cf}, !- Name
  {c5f29c8e-2043-43e1-a33e-30c2efec6d96}; !- HVAC Component

OS:PortList,
  {a69088c0-fbcc-4cb9-8757-76c880a8c354}, !- Handle
  {9412d58c-b96e-44f3-a098-5cdd1000bc5d}, !- Name
  {c5f29c8e-2043-43e1-a33e-30c2efec6d96}, !- HVAC Component
  {06a59a2e-1039-4ade-81b8-ff2e88e07ecf}, !- Port 1
  {66e297fe-022e-41b6-83a2-6a273a54fa6d}; !- Port 2

OS:Sizing:Zone,
  {035a6749-1bb9-41e7-88f8-640b52e34bba}, !- Handle
  {c5f29c8e-2043-43e1-a33e-30c2efec6d96}, !- Zone or ZoneList Name
  SupplyAirTemperature,                   !- Zone Cooling Design Supply Air Temperature Input Method
  14,                                     !- Zone Cooling Design Supply Air Temperature {C}
  11.11,                                  !- Zone Cooling Design Supply Air Temperature Difference {deltaC}
  SupplyAirTemperature,                   !- Zone Heating Design Supply Air Temperature Input Method
  40,                                     !- Zone Heating Design Supply Air Temperature {C}
  11.11,                                  !- Zone Heating Design Supply Air Temperature Difference {deltaC}
  0.0085,                                 !- Zone Cooling Design Supply Air Humidity Ratio {kg-H2O/kg-air}
  0.008,                                  !- Zone Heating Design Supply Air Humidity Ratio {kg-H2O/kg-air}
  ,                                       !- Zone Heating Sizing Factor
  ,                                       !- Zone Cooling Sizing Factor
  DesignDay,                              !- Cooling Design Air Flow Method
  ,                                       !- Cooling Design Air Flow Rate {m3/s}
  ,                                       !- Cooling Minimum Air Flow per Zone Floor Area {m3/s-m2}
  ,                                       !- Cooling Minimum Air Flow {m3/s}
  ,                                       !- Cooling Minimum Air Flow Fraction
  DesignDay,                              !- Heating Design Air Flow Method
  ,                                       !- Heating Design Air Flow Rate {m3/s}
  ,                                       !- Heating Maximum Air Flow per Zone Floor Area {m3/s-m2}
  ,                                       !- Heating Maximum Air Flow {m3/s}
  ,                                       !- Heating Maximum Air Flow Fraction
  ,                                       !- Design Zone Air Distribution Effectiveness in Cooling Mode
  ,                                       !- Design Zone Air Distribution Effectiveness in Heating Mode
  No,                                     !- Account for Dedicated Outdoor Air System
  NeutralSupplyAir,                       !- Dedicated Outdoor Air System Control Strategy
  autosize,                               !- Dedicated Outdoor Air Low Setpoint Temperature for Design {C}
  autosize;                               !- Dedicated Outdoor Air High Setpoint Temperature for Design {C}

OS:ZoneHVAC:EquipmentList,
  {dbc71801-4b28-4217-b604-147126871866}, !- Handle
  Zone HVAC Equipment List 1,             !- Name
  {c5f29c8e-2043-43e1-a33e-30c2efec6d96}, !- Thermal Zone
  SequentialLoad,                         !- Load Distribution Scheme
  {c85e89d2-df95-49bd-a3ce-a9c085f0409f}, !- Zone Equipment 1
  1,                                      !- Zone Equipment Cooling Sequence 1
  1,                                      !- Zone Equipment Heating or No-Load Sequence 1
  ,                                       !- Zone Equipment Sequential Cooling Fraction Schedule Name 1
  ,                                       !- Zone Equipment Sequential Heating Fraction Schedule Name 1
  {90bcbc41-8ed4-4924-a1e9-4c4bd8342282}, !- Zone Equipment 2
  2,                                      !- Zone Equipment Cooling Sequence 2
  2,                                      !- Zone Equipment Heating or No-Load Sequence 2
  ,                                       !- Zone Equipment Sequential Cooling Fraction Schedule Name 2
  ;                                       !- Zone Equipment Sequential Heating Fraction Schedule Name 2

OS:ThermalZone,
  {30783ab4-007f-4953-8d07-01451297ca8a}, !- Handle
  garage zone,                            !- Name
  ,                                       !- Multiplier
  ,                                       !- Ceiling Height {m}
  ,                                       !- Volume {m3}
  ,                                       !- Floor Area {m2}
  ,                                       !- Zone Inside Convection Algorithm
  ,                                       !- Zone Outside Convection Algorithm
  ,                                       !- Zone Conditioning Equipment List Name
  {f24c7627-9852-48c1-823d-b99012f9b039}, !- Zone Air Inlet Port List
  {bacb3bb7-5b61-472a-adc2-9620dc4bb88f}, !- Zone Air Exhaust Port List
  {53159a87-43a6-4a6e-b360-8318c2962086}, !- Zone Air Node Name
  {520124d0-e85b-42dc-9ca5-f5a1af25fe3f}, !- Zone Return Air Port List
  ,                                       !- Primary Daylighting Control Name
  ,                                       !- Fraction of Zone Controlled by Primary Daylighting Control
  ,                                       !- Secondary Daylighting Control Name
  ,                                       !- Fraction of Zone Controlled by Secondary Daylighting Control
  ,                                       !- Illuminance Map Name
  ,                                       !- Group Rendering Name
  ,                                       !- Thermostat Name
  No;                                     !- Use Ideal Air Loads

OS:Node,
  {4019ca09-0d0a-436b-aac2-d804088e9e53}, !- Handle
  Node 2,                                 !- Name
  {53159a87-43a6-4a6e-b360-8318c2962086}, !- Inlet Port
  ;                                       !- Outlet Port

OS:Connection,
  {53159a87-43a6-4a6e-b360-8318c2962086}, !- Handle
  {39b68c8e-29fc-4c84-b017-184f2ec07bb5}, !- Name
  {30783ab4-007f-4953-8d07-01451297ca8a}, !- Source Object
  11,                                     !- Outlet Port
  {4019ca09-0d0a-436b-aac2-d804088e9e53}, !- Target Object
  2;                                      !- Inlet Port

OS:PortList,
  {f24c7627-9852-48c1-823d-b99012f9b039}, !- Handle
  {11ce79f9-4154-462b-8028-ecf88bab7b6a}, !- Name
  {30783ab4-007f-4953-8d07-01451297ca8a}; !- HVAC Component

OS:PortList,
  {bacb3bb7-5b61-472a-adc2-9620dc4bb88f}, !- Handle
  {25ce62ea-ea12-4313-8986-59a265a09350}, !- Name
  {30783ab4-007f-4953-8d07-01451297ca8a}; !- HVAC Component

OS:PortList,
  {520124d0-e85b-42dc-9ca5-f5a1af25fe3f}, !- Handle
  {1fc0224f-a15b-49e5-a7eb-bb3f6a3806fc}, !- Name
  {30783ab4-007f-4953-8d07-01451297ca8a}; !- HVAC Component

OS:Sizing:Zone,
  {078d2c66-d4c8-46f8-8e83-d80af4dc5d20}, !- Handle
  {30783ab4-007f-4953-8d07-01451297ca8a}, !- Zone or ZoneList Name
  SupplyAirTemperature,                   !- Zone Cooling Design Supply Air Temperature Input Method
  14,                                     !- Zone Cooling Design Supply Air Temperature {C}
  11.11,                                  !- Zone Cooling Design Supply Air Temperature Difference {deltaC}
  SupplyAirTemperature,                   !- Zone Heating Design Supply Air Temperature Input Method
  40,                                     !- Zone Heating Design Supply Air Temperature {C}
  11.11,                                  !- Zone Heating Design Supply Air Temperature Difference {deltaC}
  0.0085,                                 !- Zone Cooling Design Supply Air Humidity Ratio {kg-H2O/kg-air}
  0.008,                                  !- Zone Heating Design Supply Air Humidity Ratio {kg-H2O/kg-air}
  ,                                       !- Zone Heating Sizing Factor
  ,                                       !- Zone Cooling Sizing Factor
  DesignDay,                              !- Cooling Design Air Flow Method
  ,                                       !- Cooling Design Air Flow Rate {m3/s}
  ,                                       !- Cooling Minimum Air Flow per Zone Floor Area {m3/s-m2}
  ,                                       !- Cooling Minimum Air Flow {m3/s}
  ,                                       !- Cooling Minimum Air Flow Fraction
  DesignDay,                              !- Heating Design Air Flow Method
  ,                                       !- Heating Design Air Flow Rate {m3/s}
  ,                                       !- Heating Maximum Air Flow per Zone Floor Area {m3/s-m2}
  ,                                       !- Heating Maximum Air Flow {m3/s}
  ,                                       !- Heating Maximum Air Flow Fraction
  ,                                       !- Design Zone Air Distribution Effectiveness in Cooling Mode
  ,                                       !- Design Zone Air Distribution Effectiveness in Heating Mode
  No,                                     !- Account for Dedicated Outdoor Air System
  NeutralSupplyAir,                       !- Dedicated Outdoor Air System Control Strategy
  autosize,                               !- Dedicated Outdoor Air Low Setpoint Temperature for Design {C}
  autosize;                               !- Dedicated Outdoor Air High Setpoint Temperature for Design {C}

OS:ZoneHVAC:EquipmentList,
  {ef6219d7-60ab-47b2-b047-63ccc9eca216}, !- Handle
  Zone HVAC Equipment List 2,             !- Name
  {30783ab4-007f-4953-8d07-01451297ca8a}; !- Thermal Zone

OS:Space,
  {5db4c367-75cd-4f26-8725-8e216e0670ee}, !- Handle
  garage space,                           !- Name
  {665bccef-2421-4038-aed2-da2675bd2bd3}, !- Space Type Name
  ,                                       !- Default Construction Set Name
  ,                                       !- Default Schedule Set Name
  -0,                                     !- Direction of Relative North {deg}
  0,                                      !- X Origin {m}
  0,                                      !- Y Origin {m}
  0,                                      !- Z Origin {m}
  ,                                       !- Building Story Name
  {30783ab4-007f-4953-8d07-01451297ca8a}; !- Thermal Zone Name

OS:Surface,
  {2b1fd031-8cf9-4452-a9af-363d3e08337f}, !- Handle
  Surface 1,                              !- Name
  Floor,                                  !- Surface Type
  ,                                       !- Construction Name
  {5db4c367-75cd-4f26-8725-8e216e0670ee}, !- Space Name
  Foundation,                             !- Outside Boundary Condition
  ,                                       !- Outside Boundary Condition Object
  NoSun,                                  !- Sun Exposure
  NoWind,                                 !- Wind Exposure
  ,                                       !- View Factor to Ground
  ,                                       !- Number of Vertices
  10.7681689431101, 0, 0,                 !- X,Y,Z Vertex 1 {m}
  10.7681689431101, 6.096, 0,             !- X,Y,Z Vertex 2 {m}
  14.4257689431101, 6.096, 0,             !- X,Y,Z Vertex 3 {m}
  14.4257689431101, 0, 0;                 !- X,Y,Z Vertex 4 {m}

OS:Surface,
  {af3e45d3-dce9-434c-90d4-e45453a424ec}, !- Handle
  Surface 2,                              !- Name
  Wall,                                   !- Surface Type
  ,                                       !- Construction Name
  {5db4c367-75cd-4f26-8725-8e216e0670ee}, !- Space Name
  Surface,                                !- Outside Boundary Condition
  {b0483c5a-d098-4682-8d8f-34e33388ed2f}, !- Outside Boundary Condition Object
  NoSun,                                  !- Sun Exposure
  NoWind,                                 !- Wind Exposure
  ,                                       !- View Factor to Ground
  ,                                       !- Number of Vertices
  10.7681689431101, 6.096, 2.4384,        !- X,Y,Z Vertex 1 {m}
  10.7681689431101, 6.096, 0,             !- X,Y,Z Vertex 2 {m}
  10.7681689431101, 0, 0,                 !- X,Y,Z Vertex 3 {m}
  10.7681689431101, 0, 2.4384;            !- X,Y,Z Vertex 4 {m}

OS:Surface,
  {32d94a89-be42-45fe-b20b-9ee06230da8a}, !- Handle
  Surface 3,                              !- Name
  Wall,                                   !- Surface Type
  ,                                       !- Construction Name
  {5db4c367-75cd-4f26-8725-8e216e0670ee}, !- Space Name
  Surface,                                !- Outside Boundary Condition
  {a5d5fa0f-e222-460f-b2e1-6191b03c3b3d}, !- Outside Boundary Condition Object
  NoSun,                                  !- Sun Exposure
  NoWind,                                 !- Wind Exposure
  ,                                       !- View Factor to Ground
  ,                                       !- Number of Vertices
  14.4257689431101, 6.096, 2.4384,        !- X,Y,Z Vertex 1 {m}
  14.4257689431101, 6.096, 0,             !- X,Y,Z Vertex 2 {m}
  10.7681689431101, 6.096, 0,             !- X,Y,Z Vertex 3 {m}
  10.7681689431101, 6.096, 2.4384;        !- X,Y,Z Vertex 4 {m}

OS:Surface,
  {84b482ae-b74c-4e23-88f0-1f6aed7bc7ad}, !- Handle
  Surface 4,                              !- Name
  Wall,                                   !- Surface Type
  ,                                       !- Construction Name
  {5db4c367-75cd-4f26-8725-8e216e0670ee}, !- Space Name
  Outdoors,                               !- Outside Boundary Condition
  ,                                       !- Outside Boundary Condition Object
  SunExposed,                             !- Sun Exposure
  WindExposed,                            !- Wind Exposure
  ,                                       !- View Factor to Ground
  ,                                       !- Number of Vertices
  14.4257689431101, 0, 2.4384,            !- X,Y,Z Vertex 1 {m}
  14.4257689431101, 0, 0,                 !- X,Y,Z Vertex 2 {m}
  14.4257689431101, 6.096, 0,             !- X,Y,Z Vertex 3 {m}
  14.4257689431101, 6.096, 2.4384;        !- X,Y,Z Vertex 4 {m}

OS:Surface,
  {835519ce-a0de-4b96-b366-14d542ef1615}, !- Handle
  Surface 5,                              !- Name
  Wall,                                   !- Surface Type
  ,                                       !- Construction Name
  {5db4c367-75cd-4f26-8725-8e216e0670ee}, !- Space Name
  Outdoors,                               !- Outside Boundary Condition
  ,                                       !- Outside Boundary Condition Object
  SunExposed,                             !- Sun Exposure
  WindExposed,                            !- Wind Exposure
  ,                                       !- View Factor to Ground
  ,                                       !- Number of Vertices
  10.7681689431101, 0, 2.4384,            !- X,Y,Z Vertex 1 {m}
  10.7681689431101, 0, 0,                 !- X,Y,Z Vertex 2 {m}
  14.4257689431101, 0, 0,                 !- X,Y,Z Vertex 3 {m}
  14.4257689431101, 0, 2.4384;            !- X,Y,Z Vertex 4 {m}

OS:Surface,
  {fcf15ffb-ca4d-4688-ba97-837e5e757804}, !- Handle
  Surface 6,                              !- Name
  RoofCeiling,                            !- Surface Type
  ,                                       !- Construction Name
  {5db4c367-75cd-4f26-8725-8e216e0670ee}, !- Space Name
  Surface,                                !- Outside Boundary Condition
  {5d5d0fba-15ca-41f2-bf4d-0205293fe587}, !- Outside Boundary Condition Object
  NoSun,                                  !- Sun Exposure
  NoWind,                                 !- Wind Exposure
  ,                                       !- View Factor to Ground
  ,                                       !- Number of Vertices
  14.4257689431101, 0, 2.4384,            !- X,Y,Z Vertex 1 {m}
  14.4257689431101, 6.096, 2.4384,        !- X,Y,Z Vertex 2 {m}
  10.7681689431101, 6.096, 2.4384,        !- X,Y,Z Vertex 3 {m}
  10.7681689431101, 0, 2.4384;            !- X,Y,Z Vertex 4 {m}

OS:SpaceType,
  {665bccef-2421-4038-aed2-da2675bd2bd3}, !- Handle
  Space Type 1,                           !- Name
  ,                                       !- Default Construction Set Name
  ,                                       !- Default Schedule Set Name
  ,                                       !- Group Rendering Name
  ,                                       !- Design Specification Outdoor Air Object Name
  ,                                       !- Standards Template
  ,                                       !- Standards Building Type
  garage;                                 !- Standards Space Type

OS:Space,
  {742c716b-e7c8-414d-910c-ff19b43ced26}, !- Handle
  living space,                           !- Name
  {5ff61ade-6dd2-4fec-94e0-a2ba6ae81d46}, !- Space Type Name
  ,                                       !- Default Construction Set Name
  ,                                       !- Default Schedule Set Name
  -0,                                     !- Direction of Relative North {deg}
  0,                                      !- X Origin {m}
  0,                                      !- Y Origin {m}
  0,                                      !- Z Origin {m}
  ,                                       !- Building Story Name
  {c5f29c8e-2043-43e1-a33e-30c2efec6d96}, !- Thermal Zone Name
  ,                                       !- Part of Total Floor Area
  ,                                       !- Design Specification Outdoor Air Object Name
  {4d783813-1e6e-4f29-8931-1bc3a99b94e9}; !- Building Unit Name

OS:Surface,
  {e7352abf-b3ae-402e-8fc8-c7ea1e422722}, !- Handle
  Surface 7,                              !- Name
  Floor,                                  !- Surface Type
  ,                                       !- Construction Name
  {742c716b-e7c8-414d-910c-ff19b43ced26}, !- Space Name
  Foundation,                             !- Outside Boundary Condition
  ,                                       !- Outside Boundary Condition Object
  NoSun,                                  !- Sun Exposure
  NoWind,                                 !- Wind Exposure
  ,                                       !- View Factor to Ground
  ,                                       !- Number of Vertices
  0, 0, 0,                                !- X,Y,Z Vertex 1 {m}
  0, 7.21288447155505, 0,                 !- X,Y,Z Vertex 2 {m}
  14.4257689431101, 7.21288447155505, 0,  !- X,Y,Z Vertex 3 {m}
  14.4257689431101, 6.096, 0,             !- X,Y,Z Vertex 4 {m}
  10.7681689431101, 6.096, 0,             !- X,Y,Z Vertex 5 {m}
  10.7681689431101, 0, 0;                 !- X,Y,Z Vertex 6 {m}

OS:Surface,
  {c8fd69c2-b958-4b3a-a371-4901f71a8075}, !- Handle
  Surface 8,                              !- Name
  Wall,                                   !- Surface Type
  ,                                       !- Construction Name
  {742c716b-e7c8-414d-910c-ff19b43ced26}, !- Space Name
  Outdoors,                               !- Outside Boundary Condition
  ,                                       !- Outside Boundary Condition Object
  SunExposed,                             !- Sun Exposure
  WindExposed,                            !- Wind Exposure
  ,                                       !- View Factor to Ground
  ,                                       !- Number of Vertices
  0, 7.21288447155505, 2.4384,            !- X,Y,Z Vertex 1 {m}
  0, 7.21288447155505, 0,                 !- X,Y,Z Vertex 2 {m}
  0, 0, 0,                                !- X,Y,Z Vertex 3 {m}
  0, 0, 2.4384;                           !- X,Y,Z Vertex 4 {m}

OS:Surface,
  {031b79d1-8df2-487c-a314-a719fc0f2a23}, !- Handle
  Surface 9,                              !- Name
  Wall,                                   !- Surface Type
  ,                                       !- Construction Name
  {742c716b-e7c8-414d-910c-ff19b43ced26}, !- Space Name
  Outdoors,                               !- Outside Boundary Condition
  ,                                       !- Outside Boundary Condition Object
  SunExposed,                             !- Sun Exposure
  WindExposed,                            !- Wind Exposure
  ,                                       !- View Factor to Ground
  ,                                       !- Number of Vertices
  14.4257689431101, 7.21288447155505, 2.4384, !- X,Y,Z Vertex 1 {m}
  14.4257689431101, 7.21288447155505, 0,  !- X,Y,Z Vertex 2 {m}
  0, 7.21288447155505, 0,                 !- X,Y,Z Vertex 3 {m}
  0, 7.21288447155505, 2.4384;            !- X,Y,Z Vertex 4 {m}

OS:Surface,
  {2d124ea8-2be7-4940-9cf9-f4c6f9d3ef5f}, !- Handle
  Surface 10,                             !- Name
  Wall,                                   !- Surface Type
  ,                                       !- Construction Name
  {742c716b-e7c8-414d-910c-ff19b43ced26}, !- Space Name
  Outdoors,                               !- Outside Boundary Condition
  ,                                       !- Outside Boundary Condition Object
  SunExposed,                             !- Sun Exposure
  WindExposed,                            !- Wind Exposure
  ,                                       !- View Factor to Ground
  ,                                       !- Number of Vertices
  14.4257689431101, 6.096, 2.4384,        !- X,Y,Z Vertex 1 {m}
  14.4257689431101, 6.096, 0,             !- X,Y,Z Vertex 2 {m}
  14.4257689431101, 7.21288447155505, 0,  !- X,Y,Z Vertex 3 {m}
  14.4257689431101, 7.21288447155505, 2.4384; !- X,Y,Z Vertex 4 {m}

OS:Surface,
  {a5d5fa0f-e222-460f-b2e1-6191b03c3b3d}, !- Handle
  Surface 11,                             !- Name
  Wall,                                   !- Surface Type
  ,                                       !- Construction Name
  {742c716b-e7c8-414d-910c-ff19b43ced26}, !- Space Name
  Surface,                                !- Outside Boundary Condition
  {32d94a89-be42-45fe-b20b-9ee06230da8a}, !- Outside Boundary Condition Object
  NoSun,                                  !- Sun Exposure
  NoWind,                                 !- Wind Exposure
  ,                                       !- View Factor to Ground
  ,                                       !- Number of Vertices
  10.7681689431101, 6.096, 2.4384,        !- X,Y,Z Vertex 1 {m}
  10.7681689431101, 6.096, 0,             !- X,Y,Z Vertex 2 {m}
  14.4257689431101, 6.096, 0,             !- X,Y,Z Vertex 3 {m}
  14.4257689431101, 6.096, 2.4384;        !- X,Y,Z Vertex 4 {m}

OS:Surface,
  {b0483c5a-d098-4682-8d8f-34e33388ed2f}, !- Handle
  Surface 12,                             !- Name
  Wall,                                   !- Surface Type
  ,                                       !- Construction Name
  {742c716b-e7c8-414d-910c-ff19b43ced26}, !- Space Name
  Surface,                                !- Outside Boundary Condition
  {af3e45d3-dce9-434c-90d4-e45453a424ec}, !- Outside Boundary Condition Object
  NoSun,                                  !- Sun Exposure
  NoWind,                                 !- Wind Exposure
  ,                                       !- View Factor to Ground
  ,                                       !- Number of Vertices
  10.7681689431101, 0, 2.4384,            !- X,Y,Z Vertex 1 {m}
  10.7681689431101, 0, 0,                 !- X,Y,Z Vertex 2 {m}
  10.7681689431101, 6.096, 0,             !- X,Y,Z Vertex 3 {m}
  10.7681689431101, 6.096, 2.4384;        !- X,Y,Z Vertex 4 {m}

OS:Surface,
  {596f9f67-399b-4587-b7e0-d488352693aa}, !- Handle
  Surface 13,                             !- Name
  Wall,                                   !- Surface Type
  ,                                       !- Construction Name
  {742c716b-e7c8-414d-910c-ff19b43ced26}, !- Space Name
  Outdoors,                               !- Outside Boundary Condition
  ,                                       !- Outside Boundary Condition Object
  SunExposed,                             !- Sun Exposure
  WindExposed,                            !- Wind Exposure
  ,                                       !- View Factor to Ground
  ,                                       !- Number of Vertices
  0, 0, 2.4384,                           !- X,Y,Z Vertex 1 {m}
  0, 0, 0,                                !- X,Y,Z Vertex 2 {m}
  10.7681689431101, 0, 0,                 !- X,Y,Z Vertex 3 {m}
  10.7681689431101, 0, 2.4384;            !- X,Y,Z Vertex 4 {m}

OS:Surface,
  {5c26b325-1424-4f1a-8d2b-08262a4fa313}, !- Handle
  Surface 14,                             !- Name
  RoofCeiling,                            !- Surface Type
  ,                                       !- Construction Name
  {742c716b-e7c8-414d-910c-ff19b43ced26}, !- Space Name
  Surface,                                !- Outside Boundary Condition
  {185bb4b8-c00e-4dd1-a04a-1c79394df781}, !- Outside Boundary Condition Object
  NoSun,                                  !- Sun Exposure
  NoWind,                                 !- Wind Exposure
  ,                                       !- View Factor to Ground
  ,                                       !- Number of Vertices
  10.7681689431101, 0, 2.4384,            !- X,Y,Z Vertex 1 {m}