!- NOTE: Auto-generated from /test/osw_files/SFD_HVACSizing_Load_2story_UB_GRG_FA_ASHP_DuctsInUB.osw

OS:Version,
  {f5e7625e-4b8b-4434-901e-7a454b64b6d0}, !- Handle
  2.8.1;                                  !- Version Identifier

OS:SimulationControl,
  {02759f03-2562-4ef6-b3f7-0fb62aad4f67}, !- Handle
  ,                                       !- Do Zone Sizing Calculation
  ,                                       !- Do System Sizing Calculation
  ,                                       !- Do Plant Sizing Calculation
  No;                                     !- Run Simulation for Sizing Periods

OS:Timestep,
  {ddcf36b9-4445-4dfa-b039-a6165ac4196d}, !- Handle
  6;                                      !- Number of Timesteps per Hour

OS:ShadowCalculation,
  {a32d588c-d918-4a80-89e9-8d851cd4e2ef}, !- Handle
  20,                                     !- Calculation Frequency
  200;                                    !- Maximum Figures in Shadow Overlap Calculations

OS:SurfaceConvectionAlgorithm:Outside,
  {fe202a4d-73ab-432e-b02b-a8ce8a442ebb}, !- Handle
  DOE-2;                                  !- Algorithm

OS:SurfaceConvectionAlgorithm:Inside,
  {1cfbb7d0-3197-401e-a7aa-560e99efd44a}, !- Handle
  TARP;                                   !- Algorithm

OS:ZoneCapacitanceMultiplier:ResearchSpecial,
  {ff9736e6-b015-4076-baac-abb21d107ebd}, !- Handle
  ,                                       !- Temperature Capacity Multiplier
  15,                                     !- Humidity Capacity Multiplier
  ;                                       !- Carbon Dioxide Capacity Multiplier

OS:RunPeriod,
  {aa5a629f-0c87-430b-8c31-8bc8d8523223}, !- Handle
  Run Period 1,                           !- Name
  1,                                      !- Begin Month
  1,                                      !- Begin Day of Month
  12,                                     !- End Month
  31,                                     !- End Day of Month
  ,                                       !- Use Weather File Holidays and Special Days
  ,                                       !- Use Weather File Daylight Saving Period
  ,                                       !- Apply Weekend Holiday Rule
  ,                                       !- Use Weather File Rain Indicators
  ,                                       !- Use Weather File Snow Indicators
  ;                                       !- Number of Times Runperiod to be Repeated

OS:WeatherFile,
  {cce8e815-199d-4d6e-8ecc-9fa8db981d18}, !- Handle
  Denver Intl Ap,                         !- City
  CO,                                     !- State Province Region
  USA,                                    !- Country
  TMY3,                                   !- Data Source
  725650,                                 !- WMO Number
  39.83,                                  !- Latitude {deg}
  -104.65,                                !- Longitude {deg}
  -7,                                     !- Time Zone {hr}
  1650,                                   !- Elevation {m}
  file:../weather/USA_CO_Denver.Intl.AP.725650_TMY3.epw, !- Url
  E23378AA;                               !- Checksum

OS:AdditionalProperties,
  {184f8e4a-3d75-450a-9ff3-5aecbe5692e4}, !- Handle
  {cce8e815-199d-4d6e-8ecc-9fa8db981d18}, !- Object Name
  EPWHeaderCity,                          !- Feature Name 1
  String,                                 !- Feature Data Type 1
  Denver Intl Ap,                         !- Feature Value 1
  EPWHeaderState,                         !- Feature Name 2
  String,                                 !- Feature Data Type 2
  CO,                                     !- Feature Value 2
  EPWHeaderCountry,                       !- Feature Name 3
  String,                                 !- Feature Data Type 3
  USA,                                    !- Feature Value 3
  EPWHeaderDataSource,                    !- Feature Name 4
  String,                                 !- Feature Data Type 4
  TMY3,                                   !- Feature Value 4
  EPWHeaderStation,                       !- Feature Name 5
  String,                                 !- Feature Data Type 5
  725650,                                 !- Feature Value 5
  EPWHeaderLatitude,                      !- Feature Name 6
  Double,                                 !- Feature Data Type 6
  39.829999999999998,                     !- Feature Value 6
  EPWHeaderLongitude,                     !- Feature Name 7
  Double,                                 !- Feature Data Type 7
  -104.65000000000001,                    !- Feature Value 7
  EPWHeaderTimezone,                      !- Feature Name 8
  Double,                                 !- Feature Data Type 8
  -7,                                     !- Feature Value 8
  EPWHeaderAltitude,                      !- Feature Name 9
  Double,                                 !- Feature Data Type 9
  5413.3858267716532,                     !- Feature Value 9
  EPWHeaderLocalPressure,                 !- Feature Name 10
  Double,                                 !- Feature Data Type 10
  0.81937567683596546,                    !- Feature Value 10
  EPWHeaderRecordsPerHour,                !- Feature Name 11
  Double,                                 !- Feature Data Type 11
  0,                                      !- Feature Value 11
  EPWDataAnnualAvgDrybulb,                !- Feature Name 12
  Double,                                 !- Feature Data Type 12
  51.575616438356228,                     !- Feature Value 12
  EPWDataAnnualMinDrybulb,                !- Feature Name 13
  Double,                                 !- Feature Data Type 13
  -2.9200000000000017,                    !- Feature Value 13
  EPWDataAnnualMaxDrybulb,                !- Feature Name 14
  Double,                                 !- Feature Data Type 14
  104,                                    !- Feature Value 14
  EPWDataCDD50F,                          !- Feature Name 15
  Double,                                 !- Feature Data Type 15
  3072.2925000000005,                     !- Feature Value 15
  EPWDataCDD65F,                          !- Feature Name 16
  Double,                                 !- Feature Data Type 16
  883.62000000000035,                     !- Feature Value 16
  EPWDataHDD50F,                          !- Feature Name 17
  Double,                                 !- Feature Data Type 17
  2497.1925000000001,                     !- Feature Value 17
  EPWDataHDD65F,                          !- Feature Name 18
  Double,                                 !- Feature Data Type 18
  5783.5200000000013,                     !- Feature Value 18
  EPWDataAnnualAvgWindspeed,              !- Feature Name 19
  Double,                                 !- Feature Data Type 19
  3.9165296803649667,                     !- Feature Value 19
  EPWDataMonthlyAvgDrybulbs,              !- Feature Name 20
  String,                                 !- Feature Data Type 20
  33.4191935483871&#4431.90142857142857&#4443.02620967741937&#4442.48624999999999&#4459.877741935483854&#4473.57574999999997&#4472.07975806451608&#4472.70008064516134&#4466.49200000000006&#4450.079112903225806&#4437.218250000000005&#4434.582177419354835, !- Feature Value 20
  EPWDataGroundMonthlyTemps,              !- Feature Name 21
  String,                                 !- Feature Data Type 21
  44.08306285945173&#4440.89570904991865&#4440.64045432632048&#4442.153016571250646&#4448.225111118704206&#4454.268919273837525&#4459.508577937551024&#4462.82777283423508&#4463.10975667174995&#4460.41014950381947&#4455.304105212311526&#4449.445696474514364, !- Feature Value 21
  EPWDataWSF,                             !- Feature Name 22
  Double,                                 !- Feature Data Type 22
  0.58999999999999997,                    !- Feature Value 22
  EPWDataMonthlyAvgDailyHighDrybulbs,     !- Feature Name 23
  String,                                 !- Feature Data Type 23
  47.41032258064516&#4446.58642857142857&#4455.15032258064517&#4453.708&#4472.80193548387098&#4488.67600000000002&#4486.1858064516129&#4485.87225806451613&#4482.082&#4463.18064516129033&#4448.73400000000001&#4448.87935483870968, !- Feature Value 23
  EPWDataMonthlyAvgDailyLowDrybulbs,      !- Feature Name 24
  String,                                 !- Feature Data Type 24
  19.347741935483874&#4419.856428571428573&#4430.316129032258065&#4431.112&#4447.41612903225806&#4457.901999999999994&#4459.063870967741934&#4460.956774193548384&#4452.352000000000004&#4438.41612903225806&#4427.002000000000002&#4423.02903225806451, !- Feature Value 24
  EPWDesignHeatingDrybulb,                !- Feature Name 25
  Double,                                 !- Feature Data Type 25
  12.02,                                  !- Feature Value 25
  EPWDesignHeatingWindspeed,              !- Feature Name 26
  Double,                                 !- Feature Data Type 26
  2.8062500000000004,                     !- Feature Value 26
  EPWDesignCoolingDrybulb,                !- Feature Name 27
  Double,                                 !- Feature Data Type 27
  91.939999999999998,                     !- Feature Value 27
  EPWDesignCoolingWetbulb,                !- Feature Name 28
  Double,                                 !- Feature Data Type 28
  59.95131430195849,                      !- Feature Value 28
  EPWDesignCoolingHumidityRatio,          !- Feature Name 29
  Double,                                 !- Feature Data Type 29
  0.0059161086834698092,                  !- Feature Value 29
  EPWDesignCoolingWindspeed,              !- Feature Name 30
  Double,                                 !- Feature Data Type 30
  3.7999999999999989,                     !- Feature Value 30
  EPWDesignDailyTemperatureRange,         !- Feature Name 31
  Double,                                 !- Feature Data Type 31
  24.915483870967748,                     !- Feature Value 31
  EPWDesignDehumidDrybulb,                !- Feature Name 32
  Double,                                 !- Feature Data Type 32
  67.996785714285721,                     !- Feature Value 32
  EPWDesignDehumidHumidityRatio,          !- Feature Name 33
  Double,                                 !- Feature Data Type 33
  0.012133744170488724,                   !- Feature Value 33
  EPWDesignCoolingDirectNormal,           !- Feature Name 34
  Double,                                 !- Feature Data Type 34
  985,                                    !- Feature Value 34
  EPWDesignCoolingDiffuseHorizontal,      !- Feature Name 35
  Double,                                 !- Feature Data Type 35
  84;                                     !- Feature Value 35

OS:YearDescription,
  {38e06792-b148-4580-bb2c-be5863c572fb}, !- Handle
  ,                                       !- Calendar Year
  Monday;                                 !- Day of Week for Start Day

OS:Site,
  {d8eb22e6-8b1f-44f2-a053-8f895d5ffe44}, !- Handle
  Denver Intl Ap_CO_USA,                  !- Name
  39.83,                                  !- Latitude {deg}
  -104.65,                                !- Longitude {deg}
  -7,                                     !- Time Zone {hr}
  1650,                                   !- Elevation {m}
  Suburbs;                                !- Terrain

OS:ClimateZones,
  {1be45711-cf7c-403b-83da-fb5a666021f8}, !- Handle
  ,                                       !- Active Institution
  ,                                       !- Active Year
  ,                                       !- Climate Zone Institution Name 1
  ,                                       !- Climate Zone Document Name 1
  ,                                       !- Climate Zone Document Year 1
  ,                                       !- Climate Zone Value 1
  Building America,                       !- Climate Zone Institution Name 2
  ,                                       !- Climate Zone Document Name 2
  0,                                      !- Climate Zone Document Year 2
  Cold;                                   !- Climate Zone Value 2

OS:Site:WaterMainsTemperature,
  {8f259855-7d58-4b90-8c76-8d5dbc140285}, !- Handle
  Correlation,                            !- Calculation Method
  ,                                       !- Temperature Schedule Name
  10.8753424657535,                       !- Annual Average Outdoor Air Temperature {C}
  23.1524007936508;                       !- Maximum Difference In Monthly Average Outdoor Air Temperatures {deltaC}

OS:RunPeriodControl:DaylightSavingTime,
  {ef60a9e9-e93e-4e7d-9440-049c2ac9fcb7}, !- Handle
  4/7,                                    !- Start Date
  10/26;                                  !- End Date

OS:Site:GroundTemperature:Deep,
  {8cdd807b-1770-4d7f-ae8f-0901e01a4f39}, !- Handle
  10.8753424657535,                       !- January Deep Ground Temperature {C}
  10.8753424657535,                       !- February Deep Ground Temperature {C}
  10.8753424657535,                       !- March Deep Ground Temperature {C}
  10.8753424657535,                       !- April Deep Ground Temperature {C}
  10.8753424657535,                       !- May Deep Ground Temperature {C}
  10.8753424657535,                       !- June Deep Ground Temperature {C}
  10.8753424657535,                       !- July Deep Ground Temperature {C}
  10.8753424657535,                       !- August Deep Ground Temperature {C}
  10.8753424657535,                       !- September Deep Ground Temperature {C}
  10.8753424657535,                       !- October Deep Ground Temperature {C}
  10.8753424657535,                       !- November Deep Ground Temperature {C}
  10.8753424657535;                       !- December Deep Ground Temperature {C}

OS:ThermalZone,
  {36fbe605-7336-4f0b-b1f0-8b642eacc326}, !- Handle
  living zone,                            !- Name
  ,                                       !- Multiplier
  ,                                       !- Ceiling Height {m}
  ,                                       !- Volume {m3}
  ,                                       !- Floor Area {m2}
  ,                                       !- Zone Inside Convection Algorithm
  ,                                       !- Zone Outside Convection Algorithm
  ,                                       !- Zone Conditioning Equipment List Name
  {581707ac-e89b-48af-b647-dcb295db9067}, !- Zone Air Inlet Port List
  {1149eb3d-2d56-4e92-a839-d5a236fc18ad}, !- Zone Air Exhaust Port List
  {9b559dd2-3c1a-4620-9885-520757075eb8}, !- Zone Air Node Name
  {c706cc8a-3914-4e70-8590-315cf73f9793}, !- Zone Return Air Port List
  ,                                       !- Primary Daylighting Control Name
  ,                                       !- Fraction of Zone Controlled by Primary Daylighting Control
  ,                                       !- Secondary Daylighting Control Name
  ,                                       !- Fraction of Zone Controlled by Secondary Daylighting Control
  ,                                       !- Illuminance Map Name
  ,                                       !- Group Rendering Name
  {ae2dcb1e-6cfb-45b4-8e9e-a9685c74b286}, !- Thermostat Name
  No;                                     !- Use Ideal Air Loads

OS:Node,
  {d2be5c10-853e-4bd7-aed0-c68553bcd2cb}, !- Handle
  Node 1,                                 !- Name
  {9b559dd2-3c1a-4620-9885-520757075eb8}, !- Inlet Port
  ;                                       !- Outlet Port

OS:Connection,
  {9b559dd2-3c1a-4620-9885-520757075eb8}, !- Handle
  {df020971-5ae9-481f-a468-c939b26c88ae}, !- Name
  {36fbe605-7336-4f0b-b1f0-8b642eacc326}, !- Source Object
  11,                                     !- Outlet Port
  {d2be5c10-853e-4bd7-aed0-c68553bcd2cb}, !- Target Object
  2;                                      !- Inlet Port

OS:PortList,
  {581707ac-e89b-48af-b647-dcb295db9067}, !- Handle
  {4f58b171-b26a-4bef-a86b-9e920c37aa7a}, !- Name
  {36fbe605-7336-4f0b-b1f0-8b642eacc326}, !- HVAC Component
  {e8225afc-50e1-4470-942a-25828aafc4f6}, !- Port 1
  {d987f4d3-35cf-475e-a0bf-54f4646537a9}; !- Port 2

OS:PortList,
  {1149eb3d-2d56-4e92-a839-d5a236fc18ad}, !- Handle
  {2801fdaf-f684-42c2-aeaa-19ba4d62d892}, !- Name
  {36fbe605-7336-4f0b-b1f0-8b642eacc326}; !- HVAC Component

OS:PortList,
  {c706cc8a-3914-4e70-8590-315cf73f9793}, !- Handle
  {4d3b0cb0-a17d-47c6-9e62-5747b9d39462}, !- Name
  {36fbe605-7336-4f0b-b1f0-8b642eacc326}, !- HVAC Component
  {5e1b976c-b302-4cc5-8dcc-2d136cd416df}, !- Port 1
  {2b26cbea-fd44-48b5-b1f6-6af52b24dc8c}; !- Port 2

OS:Sizing:Zone,
  {7c645d32-fcf3-4209-b5f8-33e6b717e053}, !- Handle
  {36fbe605-7336-4f0b-b1f0-8b642eacc326}, !- Zone or ZoneList Name
  SupplyAirTemperature,                   !- Zone Cooling Design Supply Air Temperature Input Method
  14,                                     !- Zone Cooling Design Supply Air Temperature {C}
  11.11,                                  !- Zone Cooling Design Supply Air Temperature Difference {deltaC}
  SupplyAirTemperature,                   !- Zone Heating Design Supply Air Temperature Input Method
  40,                                     !- Zone Heating Design Supply Air Temperature {C}
  11.11,                                  !- Zone Heating Design Supply Air Temperature Difference {deltaC}
  0.0085,                                 !- Zone Cooling Design Supply Air Humidity Ratio {kg-H2O/kg-air}
  0.008,                                  !- Zone Heating Design Supply Air Humidity Ratio {kg-H2O/kg-air}
  ,                                       !- Zone Heating Sizing Factor
  ,                                       !- Zone Cooling Sizing Factor
  DesignDay,                              !- Cooling Design Air Flow Method
  ,                                       !- Cooling Design Air Flow Rate {m3/s}
  ,                                       !- Cooling Minimum Air Flow per Zone Floor Area {m3/s-m2}
  ,                                       !- Cooling Minimum Air Flow {m3/s}
  ,                                       !- Cooling Minimum Air Flow Fraction
  DesignDay,                              !- Heating Design Air Flow Method
  ,                                       !- Heating Design Air Flow Rate {m3/s}
  ,                                       !- Heating Maximum Air Flow per Zone Floor Area {m3/s-m2}
  ,                                       !- Heating Maximum Air Flow {m3/s}
  ,                                       !- Heating Maximum Air Flow Fraction
  ,                                       !- Design Zone Air Distribution Effectiveness in Cooling Mode
  ,                                       !- Design Zone Air Distribution Effectiveness in Heating Mode
  No,                                     !- Account for Dedicated Outdoor Air System
  NeutralSupplyAir,                       !- Dedicated Outdoor Air System Control Strategy
  autosize,                               !- Dedicated Outdoor Air Low Setpoint Temperature for Design {C}
  autosize;                               !- Dedicated Outdoor Air High Setpoint Temperature for Design {C}

OS:ZoneHVAC:EquipmentList,
  {ace9749d-5fbb-497f-9bf8-9516c2d17eaf}, !- Handle
  Zone HVAC Equipment List 1,             !- Name
  {36fbe605-7336-4f0b-b1f0-8b642eacc326}, !- Thermal Zone
  SequentialLoad,                         !- Load Distribution Scheme
  {24c3ffee-6de9-4832-a9bc-2d61eb0d888a}, !- Zone Equipment 1
  1,                                      !- Zone Equipment Cooling Sequence 1
  1,                                      !- Zone Equipment Heating or No-Load Sequence 1
  ,                                       !- Zone Equipment Sequential Cooling Fraction 1
  ,                                       !- Zone Equipment Sequential Heating Fraction 1
  {2cf7236a-6417-484f-a175-eaf7bf4a5361}, !- Zone Equipment 2
  2,                                      !- Zone Equipment Cooling Sequence 2
  2,                                      !- Zone Equipment Heating or No-Load Sequence 2
  ,                                       !- Zone Equipment Sequential Cooling Fraction 2
  ;                                       !- Zone Equipment Sequential Heating Fraction 2

OS:Space,
  {ce116175-0404-4aaa-bebb-6f45a1bcf02b}, !- Handle
  living space,                           !- Name
  {c3b7d724-532b-4bf0-823f-b9b7945ad052}, !- Space Type Name
  ,                                       !- Default Construction Set Name
  ,                                       !- Default Schedule Set Name
  -0,                                     !- Direction of Relative North {deg}
  0,                                      !- X Origin {m}
  0,                                      !- Y Origin {m}
  0,                                      !- Z Origin {m}
  ,                                       !- Building Story Name
  {36fbe605-7336-4f0b-b1f0-8b642eacc326}, !- Thermal Zone Name
  ,                                       !- Part of Total Floor Area
  ,                                       !- Design Specification Outdoor Air Object Name
  {ac733202-3c2f-4f3a-a822-d94b44c4f00b}; !- Building Unit Name

OS:Surface,
  {614b62df-740d-48d5-be72-d9a2d9d36f87}, !- Handle
  Surface 1,                              !- Name
  Floor,                                  !- Surface Type
  {1fa7dbaa-9056-495c-a159-2344843ea7ad}, !- Construction Name
  {ce116175-0404-4aaa-bebb-6f45a1bcf02b}, !- Space Name
  Surface,                                !- Outside Boundary Condition
  {dea6c411-976d-4aa4-bea4-57703b178c18}, !- Outside Boundary Condition Object
  NoSun,                                  !- Sun Exposure
  NoWind,                                 !- Wind Exposure
  ,                                       !- View Factor to Ground
  ,                                       !- Number of Vertices
  0, 0, 0,                                !- X,Y,Z Vertex 1 {m}
  0, 7.1732649261475, 0,                  !- X,Y,Z Vertex 2 {m}
  11.5396000973376, 7.1732649261475, 0,   !- X,Y,Z Vertex 3 {m}
  11.5396000973376, 0, 0;                 !- X,Y,Z Vertex 4 {m}

OS:Surface,
  {bd2bd6fd-f916-47e0-a064-2ad520468a9a}, !- Handle
  Surface 2,                              !- Name
  Wall,                                   !- Surface Type
  {df4a4ff9-59b0-4863-b580-27c6e2e263b2}, !- Construction Name
  {ce116175-0404-4aaa-bebb-6f45a1bcf02b}, !- Space Name
  Outdoors,                               !- Outside Boundary Condition
  ,                                       !- Outside Boundary Condition Object
  SunExposed,                             !- Sun Exposure
  WindExposed,                            !- Wind Exposure
  ,                                       !- View Factor to Ground
  ,                                       !- Number of Vertices
  0, 7.1732649261475, 2.4384,             !- X,Y,Z Vertex 1 {m}
  0, 7.1732649261475, 0,                  !- X,Y,Z Vertex 2 {m}
  0, 0, 0,                                !- X,Y,Z Vertex 3 {m}
  0, 0, 2.4384;                           !- X,Y,Z Vertex 4 {m}

OS:Surface,
  {08c67451-2930-47ef-b838-7065c668c245}, !- Handle
  Surface 3,                              !- Name
  Wall,                                   !- Surface Type
  {df4a4ff9-59b0-4863-b580-27c6e2e263b2}, !- Construction Name
  {ce116175-0404-4aaa-bebb-6f45a1bcf02b}, !- Space Name
  Outdoors,                               !- Outside Boundary Condition
  ,                                       !- Outside Boundary Condition Object
  SunExposed,                             !- Sun Exposure
  WindExposed,                            !- Wind Exposure
  ,                                       !- View Factor to Ground
  ,                                       !- Number of Vertices
  11.5396000973376, 7.1732649261475, 2.4384, !- X,Y,Z Vertex 1 {m}
  11.5396000973376, 7.1732649261475, 0,   !- X,Y,Z Vertex 2 {m}
  0, 7.1732649261475, 0,                  !- X,Y,Z Vertex 3 {m}
  0, 7.1732649261475, 2.4384;             !- X,Y,Z Vertex 4 {m}

OS:Surface,
  {b9d41224-e77e-4311-8fa1-81fd3f2337a7}, !- Handle
  Surface 4,                              !- Name
  Wall,                                   !- Surface Type
  {df4a4ff9-59b0-4863-b580-27c6e2e263b2}, !- Construction Name
  {ce116175-0404-4aaa-bebb-6f45a1bcf02b}, !- Space Name
  Outdoors,                               !- Outside Boundary Condition
  ,                                       !- Outside Boundary Condition Object
  SunExposed,                             !- Sun Exposure
  WindExposed,                            !- Wind Exposure
  ,                                       !- View Factor to Ground
  ,                                       !- Number of Vertices
  11.5396000973376, 0, 2.4384,            !- X,Y,Z Vertex 1 {m}
  11.5396000973376, 0, 0,                 !- X,Y,Z Vertex 2 {m}
  11.5396000973376, 7.1732649261475, 0,   !- X,Y,Z Vertex 3 {m}
  11.5396000973376, 7.1732649261475, 2.4384; !- X,Y,Z Vertex 4 {m}

OS:Surface,
  {8d8ef586-58fb-4b4d-a705-21a1d4021d34}, !- Handle
  Surface 5,                              !- Name
  Wall,                                   !- Surface Type
  {df4a4ff9-59b0-4863-b580-27c6e2e263b2}, !- Construction Name
  {ce116175-0404-4aaa-bebb-6f45a1bcf02b}, !- Space Name
  Outdoors,                               !- Outside Boundary Condition
  ,                                       !- Outside Boundary Condition Object
  SunExposed,                             !- Sun Exposure
  WindExposed,                            !- Wind Exposure
  ,                                       !- View Factor to Ground
  ,                                       !- Number of Vertices
  11.5396000973376, 0, 0,                 !- X,Y,Z Vertex 1 {m}
  11.5396000973376, 0, 2.4384,            !- X,Y,Z Vertex 2 {m}
  1.04865714285714, 0, 2.4384,            !- X,Y,Z Vertex 3 {m}
  1.04865714285714, 0, 0;                 !- X,Y,Z Vertex 4 {m}

OS:Surface,
  {884c99a5-1132-4321-9f17-ae670c2d5d9b}, !- Handle
  Surface 6,                              !- Name
  RoofCeiling,                            !- Surface Type
  {841a2616-a0d7-4719-bd40-a8c8ea08cc2e}, !- Construction Name
  {ce116175-0404-4aaa-bebb-6f45a1bcf02b}, !- Space Name
  Surface,                                !- Outside Boundary Condition
  {506a04f3-457d-4c30-9080-d3d39f5d98be}, !- Outside Boundary Condition Object
  NoSun,                                  !- Sun Exposure
  NoWind,                                 !- Wind Exposure
  ,                                       !- View Factor to Ground
  ,                                       !- Number of Vertices
  11.5396000973376, 0, 2.4384,            !- X,Y,Z Vertex 1 {m}
  11.5396000973376, 7.1732649261475, 2.4384, !- X,Y,Z Vertex 2 {m}
  0, 7.1732649261475, 2.4384,             !- X,Y,Z Vertex 3 {m}
  0, 0, 2.4384;                           !- X,Y,Z Vertex 4 {m}

OS:SpaceType,
  {c3b7d724-532b-4bf0-823f-b9b7945ad052}, !- Handle
  Space Type 1,                           !- Name
  ,                                       !- Default Construction Set Name
  ,                                       !- Default Schedule Set Name
  ,                                       !- Group Rendering Name
  ,                                       !- Design Specification Outdoor Air Object Name
  ,                                       !- Standards Template
  ,                                       !- Standards Building Type
  living;                                 !- Standards Space Type

OS:Space,
  {28a79928-00c3-4bcc-8b6b-3f3df85e7758}, !- Handle
  living space|story 2,                   !- Name
  {c3b7d724-532b-4bf0-823f-b9b7945ad052}, !- Space Type Name
  ,                                       !- Default Construction Set Name
  ,                                       !- Default Schedule Set Name
  -0,                                     !- Direction of Relative North {deg}
  0,                                      !- X Origin {m}
  0,                                      !- Y Origin {m}
  2.4384,                                 !- Z Origin {m}
  ,                                       !- Building Story Name
  {36fbe605-7336-4f0b-b1f0-8b642eacc326}, !- Thermal Zone Name
  ,                                       !- Part of Total Floor Area
  ,                                       !- Design Specification Outdoor Air Object Name
  {ac733202-3c2f-4f3a-a822-d94b44c4f00b}; !- Building Unit Name

OS:Surface,
  {506a04f3-457d-4c30-9080-d3d39f5d98be}, !- Handle
  Surface 7,                              !- Name
  Floor,                                  !- Surface Type
  {807aa22a-fe7c-4dc3-9382-bc4b2a230741}, !- Construction Name
  {28a79928-00c3-4bcc-8b6b-3f3df85e7758}, !- Space Name
  Surface,                                !- Outside Boundary Condition
  {884c99a5-1132-4321-9f17-ae670c2d5d9b}, !- Outside Boundary Condition Object
  NoSun,                                  !- Sun Exposure
  NoWind,                                 !- Wind Exposure
  ,                                       !- View Factor to Ground
  ,                                       !- Number of Vertices
  0, 0, 0,                                !- X,Y,Z Vertex 1 {m}
  0, 7.1732649261475, 0,                  !- X,Y,Z Vertex 2 {m}
  11.5396000973376, 7.1732649261475, 0,   !- X,Y,Z Vertex 3 {m}
  11.5396000973376, 0, 0;                 !- X,Y,Z Vertex 4 {m}

OS:Surface,
  {f0c15847-76a8-4ec1-88c9-cc1bdec2ce1b}, !- Handle
  Surface 8,                              !- Name
  Wall,                                   !- Surface Type
  {df4a4ff9-59b0-4863-b580-27c6e2e263b2}, !- Construction Name
  {28a79928-00c3-4bcc-8b6b-3f3df85e7758}, !- Space Name
  Outdoors,                               !- Outside Boundary Condition
  ,                                       !- Outside Boundary Condition Object
  SunExposed,                             !- Sun Exposure
  WindExposed,                            !- Wind Exposure
  ,                                       !- View Factor to Ground
  ,                                       !- Number of Vertices