!- NOTE: Auto-generated from /test/osw_files/SFD_HVACSizing_Equip_GF_ACV_Fixed.osw

OS:Version,
  {32a50905-2481-4242-a9b9-227840ffd89e}, !- Handle
  2.9.1;                                  !- Version Identifier

OS:SimulationControl,
  {73971df1-fe97-41ea-9cfc-7ddfb3b45429}, !- Handle
  ,                                       !- Do Zone Sizing Calculation
  ,                                       !- Do System Sizing Calculation
  ,                                       !- Do Plant Sizing Calculation
  No;                                     !- Run Simulation for Sizing Periods

OS:Timestep,
  {9ae3ea57-2616-4545-9665-45d8c7cc4034}, !- Handle
  6;                                      !- Number of Timesteps per Hour

OS:ShadowCalculation,
  {0ecb5f5f-79b4-4be8-b6d7-472fb99c85db}, !- Handle
  20,                                     !- Calculation Frequency
  200;                                    !- Maximum Figures in Shadow Overlap Calculations

OS:SurfaceConvectionAlgorithm:Outside,
  {ecc7d192-87b5-4918-932a-601244d9303e}, !- Handle
  DOE-2;                                  !- Algorithm

OS:SurfaceConvectionAlgorithm:Inside,
  {a233fcf4-0725-4cf3-92e7-fcb5553531ee}, !- Handle
  TARP;                                   !- Algorithm

OS:ZoneCapacitanceMultiplier:ResearchSpecial,
  {d741a2ac-2372-4063-8a1b-a0c5117c9c34}, !- Handle
  ,                                       !- Temperature Capacity Multiplier
  15,                                     !- Humidity Capacity Multiplier
  ;                                       !- Carbon Dioxide Capacity Multiplier

OS:RunPeriod,
  {17055519-f873-415d-91be-888a6987f677}, !- Handle
  Run Period 1,                           !- Name
  1,                                      !- Begin Month
  1,                                      !- Begin Day of Month
  12,                                     !- End Month
  31,                                     !- End Day of Month
  ,                                       !- Use Weather File Holidays and Special Days
  ,                                       !- Use Weather File Daylight Saving Period
  ,                                       !- Apply Weekend Holiday Rule
  ,                                       !- Use Weather File Rain Indicators
  ,                                       !- Use Weather File Snow Indicators
  ;                                       !- Number of Times Runperiod to be Repeated

OS:YearDescription,
  {591c2693-48bd-4ba1-8353-132e57c83da1}, !- Handle
  2007,                                   !- Calendar Year
  ,                                       !- Day of Week for Start Day
  ;                                       !- Is Leap Year

OS:WeatherFile,
  {c7a53e4b-8310-4a8d-a4ee-a58841913ae3}, !- Handle
  Denver Intl Ap,                         !- City
  CO,                                     !- State Province Region
  USA,                                    !- Country
  TMY3,                                   !- Data Source
  725650,                                 !- WMO Number
  39.83,                                  !- Latitude {deg}
  -104.65,                                !- Longitude {deg}
  -7,                                     !- Time Zone {hr}
  1650,                                   !- Elevation {m}
  file:../weather/USA_CO_Denver.Intl.AP.725650_TMY3.epw, !- Url
  E23378AA;                               !- Checksum

OS:AdditionalProperties,
  {516523ca-6735-4ea7-985e-8633649b9f7f}, !- Handle
  {c7a53e4b-8310-4a8d-a4ee-a58841913ae3}, !- Object Name
  EPWHeaderCity,                          !- Feature Name 1
  String,                                 !- Feature Data Type 1
  Denver Intl Ap,                         !- Feature Value 1
  EPWHeaderState,                         !- Feature Name 2
  String,                                 !- Feature Data Type 2
  CO,                                     !- Feature Value 2
  EPWHeaderCountry,                       !- Feature Name 3
  String,                                 !- Feature Data Type 3
  USA,                                    !- Feature Value 3
  EPWHeaderDataSource,                    !- Feature Name 4
  String,                                 !- Feature Data Type 4
  TMY3,                                   !- Feature Value 4
  EPWHeaderStation,                       !- Feature Name 5
  String,                                 !- Feature Data Type 5
  725650,                                 !- Feature Value 5
  EPWHeaderLatitude,                      !- Feature Name 6
  Double,                                 !- Feature Data Type 6
  39.829999999999998,                     !- Feature Value 6
  EPWHeaderLongitude,                     !- Feature Name 7
  Double,                                 !- Feature Data Type 7
  -104.65000000000001,                    !- Feature Value 7
  EPWHeaderTimezone,                      !- Feature Name 8
  Double,                                 !- Feature Data Type 8
  -7,                                     !- Feature Value 8
  EPWHeaderAltitude,                      !- Feature Name 9
  Double,                                 !- Feature Data Type 9
  5413.3858267716532,                     !- Feature Value 9
  EPWHeaderLocalPressure,                 !- Feature Name 10
  Double,                                 !- Feature Data Type 10
  0.81937567683596546,                    !- Feature Value 10
  EPWHeaderRecordsPerHour,                !- Feature Name 11
  Double,                                 !- Feature Data Type 11
  0,                                      !- Feature Value 11
  EPWDataAnnualAvgDrybulb,                !- Feature Name 12
  Double,                                 !- Feature Data Type 12
  51.575616438356228,                     !- Feature Value 12
  EPWDataAnnualMinDrybulb,                !- Feature Name 13
  Double,                                 !- Feature Data Type 13
  -2.9200000000000017,                    !- Feature Value 13
  EPWDataAnnualMaxDrybulb,                !- Feature Name 14
  Double,                                 !- Feature Data Type 14
  104,                                    !- Feature Value 14
  EPWDataCDD50F,                          !- Feature Name 15
  Double,                                 !- Feature Data Type 15
  3072.2925000000005,                     !- Feature Value 15
  EPWDataCDD65F,                          !- Feature Name 16
  Double,                                 !- Feature Data Type 16
  883.62000000000035,                     !- Feature Value 16
  EPWDataHDD50F,                          !- Feature Name 17
  Double,                                 !- Feature Data Type 17
  2497.1925000000001,                     !- Feature Value 17
  EPWDataHDD65F,                          !- Feature Name 18
  Double,                                 !- Feature Data Type 18
  5783.5200000000013,                     !- Feature Value 18
  EPWDataAnnualAvgWindspeed,              !- Feature Name 19
  Double,                                 !- Feature Data Type 19
  3.9165296803649667,                     !- Feature Value 19
  EPWDataMonthlyAvgDrybulbs,              !- Feature Name 20
  String,                                 !- Feature Data Type 20
  33.4191935483871&#4431.90142857142857&#4443.02620967741937&#4442.48624999999999&#4459.877741935483854&#4473.57574999999997&#4472.07975806451608&#4472.70008064516134&#4466.49200000000006&#4450.079112903225806&#4437.218250000000005&#4434.582177419354835, !- Feature Value 20
  EPWDataGroundMonthlyTemps,              !- Feature Name 21
  String,                                 !- Feature Data Type 21
  44.08306285945173&#4440.89570904991865&#4440.64045432632048&#4442.153016571250646&#4448.225111118704206&#4454.268919273837525&#4459.508577937551024&#4462.82777283423508&#4463.10975667174995&#4460.41014950381947&#4455.304105212311526&#4449.445696474514364, !- Feature Value 21
  EPWDataWSF,                             !- Feature Name 22
  Double,                                 !- Feature Data Type 22
  0.58999999999999997,                    !- Feature Value 22
  EPWDataMonthlyAvgDailyHighDrybulbs,     !- Feature Name 23
  String,                                 !- Feature Data Type 23
  47.41032258064516&#4446.58642857142857&#4455.15032258064517&#4453.708&#4472.80193548387098&#4488.67600000000002&#4486.1858064516129&#4485.87225806451613&#4482.082&#4463.18064516129033&#4448.73400000000001&#4448.87935483870968, !- Feature Value 23
  EPWDataMonthlyAvgDailyLowDrybulbs,      !- Feature Name 24
  String,                                 !- Feature Data Type 24
  19.347741935483874&#4419.856428571428573&#4430.316129032258065&#4431.112&#4447.41612903225806&#4457.901999999999994&#4459.063870967741934&#4460.956774193548384&#4452.352000000000004&#4438.41612903225806&#4427.002000000000002&#4423.02903225806451, !- Feature Value 24
  EPWDesignHeatingDrybulb,                !- Feature Name 25
  Double,                                 !- Feature Data Type 25
  12.02,                                  !- Feature Value 25
  EPWDesignHeatingWindspeed,              !- Feature Name 26
  Double,                                 !- Feature Data Type 26
  2.8062500000000004,                     !- Feature Value 26
  EPWDesignCoolingDrybulb,                !- Feature Name 27
  Double,                                 !- Feature Data Type 27
  91.939999999999998,                     !- Feature Value 27
  EPWDesignCoolingWetbulb,                !- Feature Name 28
  Double,                                 !- Feature Data Type 28
  59.95131430195849,                      !- Feature Value 28
  EPWDesignCoolingHumidityRatio,          !- Feature Name 29
  Double,                                 !- Feature Data Type 29
  0.0059161086834698092,                  !- Feature Value 29
  EPWDesignCoolingWindspeed,              !- Feature Name 30
  Double,                                 !- Feature Data Type 30
  3.7999999999999989,                     !- Feature Value 30
  EPWDesignDailyTemperatureRange,         !- Feature Name 31
  Double,                                 !- Feature Data Type 31
  24.915483870967748,                     !- Feature Value 31
  EPWDesignDehumidDrybulb,                !- Feature Name 32
  Double,                                 !- Feature Data Type 32
  67.996785714285721,                     !- Feature Value 32
  EPWDesignDehumidHumidityRatio,          !- Feature Name 33
  Double,                                 !- Feature Data Type 33
  0.012133744170488724,                   !- Feature Value 33
  EPWDesignCoolingDirectNormal,           !- Feature Name 34
  Double,                                 !- Feature Data Type 34
  985,                                    !- Feature Value 34
  EPWDesignCoolingDiffuseHorizontal,      !- Feature Name 35
  Double,                                 !- Feature Data Type 35
  84;                                     !- Feature Value 35

OS:Site,
  {ee13ea8c-a1f4-475b-a364-fa8ad1861076}, !- Handle
  Denver Intl Ap_CO_USA,                  !- Name
  39.83,                                  !- Latitude {deg}
  -104.65,                                !- Longitude {deg}
  -7,                                     !- Time Zone {hr}
  1650,                                   !- Elevation {m}
  Suburbs;                                !- Terrain

OS:ClimateZones,
  {4a707817-764e-4cf3-868b-9d8126bef9d3}, !- Handle
  ,                                       !- Active Institution
  ,                                       !- Active Year
  ,                                       !- Climate Zone Institution Name 1
  ,                                       !- Climate Zone Document Name 1
  ,                                       !- Climate Zone Document Year 1
  ,                                       !- Climate Zone Value 1
  Building America,                       !- Climate Zone Institution Name 2
  ,                                       !- Climate Zone Document Name 2
  0,                                      !- Climate Zone Document Year 2
  Cold;                                   !- Climate Zone Value 2

OS:Site:WaterMainsTemperature,
  {6734d866-c803-40aa-8101-4e8b4dd86839}, !- Handle
  Correlation,                            !- Calculation Method
  ,                                       !- Temperature Schedule Name
  10.8753424657535,                       !- Annual Average Outdoor Air Temperature {C}
  23.1524007936508;                       !- Maximum Difference In Monthly Average Outdoor Air Temperatures {deltaC}

OS:RunPeriodControl:DaylightSavingTime,
  {238baebb-ce35-4728-9780-7424a49cf70c}, !- Handle
  4/7,                                    !- Start Date
  10/26;                                  !- End Date

OS:Site:GroundTemperature:Deep,
  {ec3b8e27-a52c-4aa2-959b-5acfe0ddef47}, !- Handle
  10.8753424657535,                       !- January Deep Ground Temperature {C}
  10.8753424657535,                       !- February Deep Ground Temperature {C}
  10.8753424657535,                       !- March Deep Ground Temperature {C}
  10.8753424657535,                       !- April Deep Ground Temperature {C}
  10.8753424657535,                       !- May Deep Ground Temperature {C}
  10.8753424657535,                       !- June Deep Ground Temperature {C}
  10.8753424657535,                       !- July Deep Ground Temperature {C}
  10.8753424657535,                       !- August Deep Ground Temperature {C}
  10.8753424657535,                       !- September Deep Ground Temperature {C}
  10.8753424657535,                       !- October Deep Ground Temperature {C}
  10.8753424657535,                       !- November Deep Ground Temperature {C}
  10.8753424657535;                       !- December Deep Ground Temperature {C}

OS:ThermalZone,
  {f3ab225f-0c8e-435a-899f-383d16c2da0b}, !- Handle
  living zone,                            !- Name
  ,                                       !- Multiplier
  ,                                       !- Ceiling Height {m}
  ,                                       !- Volume {m3}
  ,                                       !- Floor Area {m2}
  ,                                       !- Zone Inside Convection Algorithm
  ,                                       !- Zone Outside Convection Algorithm
  ,                                       !- Zone Conditioning Equipment List Name
  {f38d5743-8d7f-41d5-aa40-cae6113c0afc}, !- Zone Air Inlet Port List
  {28a1145a-6a60-4a48-a1f8-c2fec71641ca}, !- Zone Air Exhaust Port List
  {13bfc6d5-6f12-4a09-a56f-6ab7dfccfade}, !- Zone Air Node Name
  {6971e5a8-8ef6-4e04-927f-61e90f4c7a4a}, !- Zone Return Air Port List
  ,                                       !- Primary Daylighting Control Name
  ,                                       !- Fraction of Zone Controlled by Primary Daylighting Control
  ,                                       !- Secondary Daylighting Control Name
  ,                                       !- Fraction of Zone Controlled by Secondary Daylighting Control
  ,                                       !- Illuminance Map Name
  ,                                       !- Group Rendering Name
  {5dcc8e38-a67a-49d4-bed7-4b4255cc4f09}, !- Thermostat Name
  No;                                     !- Use Ideal Air Loads

OS:Node,
  {3d2c5050-01ed-4cfe-9ed9-8e474bc22fe7}, !- Handle
  Node 1,                                 !- Name
  {13bfc6d5-6f12-4a09-a56f-6ab7dfccfade}, !- Inlet Port
  ;                                       !- Outlet Port

OS:Connection,
  {13bfc6d5-6f12-4a09-a56f-6ab7dfccfade}, !- Handle
  {fbdd4f87-c2bc-4f94-bb76-8e8880ae84ba}, !- Name
  {f3ab225f-0c8e-435a-899f-383d16c2da0b}, !- Source Object
  11,                                     !- Outlet Port
  {3d2c5050-01ed-4cfe-9ed9-8e474bc22fe7}, !- Target Object
  2;                                      !- Inlet Port

OS:PortList,
  {f38d5743-8d7f-41d5-aa40-cae6113c0afc}, !- Handle
  {b3e10281-3a94-4a98-9fa8-e6d2a7368bf0}, !- Name
  {f3ab225f-0c8e-435a-899f-383d16c2da0b}, !- HVAC Component
  {0869b311-f3ca-4a2d-a2f1-f9cbc07c82b3}, !- Port 1
  {98fdd89e-b149-433a-b730-6fa0b2eeb8de}; !- Port 2

OS:PortList,
  {28a1145a-6a60-4a48-a1f8-c2fec71641ca}, !- Handle
  {a9838852-7034-4be1-b34a-ca2406f3f31e}, !- Name
  {f3ab225f-0c8e-435a-899f-383d16c2da0b}; !- HVAC Component

OS:PortList,
  {6971e5a8-8ef6-4e04-927f-61e90f4c7a4a}, !- Handle
  {d6e096b0-ce71-421b-ade8-0f56978322a0}, !- Name
  {f3ab225f-0c8e-435a-899f-383d16c2da0b}, !- HVAC Component
  {91c998d7-14d5-4330-b65d-a0422ff0b3c0}, !- Port 1
  {395e4fab-f25f-42b9-a44e-ef4ae92715d3}; !- Port 2

OS:Sizing:Zone,
  {393977d1-090d-47e6-aec6-2f0610d8777c}, !- Handle
  {f3ab225f-0c8e-435a-899f-383d16c2da0b}, !- Zone or ZoneList Name
  SupplyAirTemperature,                   !- Zone Cooling Design Supply Air Temperature Input Method
  14,                                     !- Zone Cooling Design Supply Air Temperature {C}
  11.11,                                  !- Zone Cooling Design Supply Air Temperature Difference {deltaC}
  SupplyAirTemperature,                   !- Zone Heating Design Supply Air Temperature Input Method
  40,                                     !- Zone Heating Design Supply Air Temperature {C}
  11.11,                                  !- Zone Heating Design Supply Air Temperature Difference {deltaC}
  0.0085,                                 !- Zone Cooling Design Supply Air Humidity Ratio {kg-H2O/kg-air}
  0.008,                                  !- Zone Heating Design Supply Air Humidity Ratio {kg-H2O/kg-air}
  ,                                       !- Zone Heating Sizing Factor
  ,                                       !- Zone Cooling Sizing Factor
  DesignDay,                              !- Cooling Design Air Flow Method
  ,                                       !- Cooling Design Air Flow Rate {m3/s}
  ,                                       !- Cooling Minimum Air Flow per Zone Floor Area {m3/s-m2}
  ,                                       !- Cooling Minimum Air Flow {m3/s}
  ,                                       !- Cooling Minimum Air Flow Fraction
  DesignDay,                              !- Heating Design Air Flow Method
  ,                                       !- Heating Design Air Flow Rate {m3/s}
  ,                                       !- Heating Maximum Air Flow per Zone Floor Area {m3/s-m2}
  ,                                       !- Heating Maximum Air Flow {m3/s}
  ,                                       !- Heating Maximum Air Flow Fraction
  ,                                       !- Design Zone Air Distribution Effectiveness in Cooling Mode
  ,                                       !- Design Zone Air Distribution Effectiveness in Heating Mode
  No,                                     !- Account for Dedicated Outdoor Air System
  NeutralSupplyAir,                       !- Dedicated Outdoor Air System Control Strategy
  autosize,                               !- Dedicated Outdoor Air Low Setpoint Temperature for Design {C}
  autosize;                               !- Dedicated Outdoor Air High Setpoint Temperature for Design {C}

OS:ZoneHVAC:EquipmentList,
  {acc6e8fc-b0fb-4a11-86db-d152722dca1f}, !- Handle
  Zone HVAC Equipment List 1,             !- Name
  {f3ab225f-0c8e-435a-899f-383d16c2da0b}, !- Thermal Zone
  SequentialLoad,                         !- Load Distribution Scheme
  {78b8ace3-ef1f-4330-bdd3-639f70b9fcbb}, !- Zone Equipment 1
  1,                                      !- Zone Equipment Cooling Sequence 1
  1,                                      !- Zone Equipment Heating or No-Load Sequence 1
  ,                                       !- Zone Equipment Sequential Cooling Fraction Schedule Name 1
  ,                                       !- Zone Equipment Sequential Heating Fraction Schedule Name 1
  {bd663dc2-3732-4d8a-ab67-c875f922fae4}, !- Zone Equipment 2
  2,                                      !- Zone Equipment Cooling Sequence 2
  2,                                      !- Zone Equipment Heating or No-Load Sequence 2
  ,                                       !- Zone Equipment Sequential Cooling Fraction Schedule Name 2
  ;                                       !- Zone Equipment Sequential Heating Fraction Schedule Name 2

OS:ThermalZone,
  {bcaeb43e-c961-4f65-9091-db3f87e588bf}, !- Handle
  garage zone,                            !- Name
  ,                                       !- Multiplier
  ,                                       !- Ceiling Height {m}
  ,                                       !- Volume {m3}
  ,                                       !- Floor Area {m2}
  ,                                       !- Zone Inside Convection Algorithm
  ,                                       !- Zone Outside Convection Algorithm
  ,                                       !- Zone Conditioning Equipment List Name
  {cbb882c7-9036-44d1-b3b9-975ee05950fd}, !- Zone Air Inlet Port List
  {e4212aa3-96a7-44ee-b800-afa8d2695259}, !- Zone Air Exhaust Port List
  {e75472fd-4b97-4450-b73a-4c407a4a2040}, !- Zone Air Node Name
  {f38cd05d-5b57-4476-a8b8-fabff45465d6}, !- Zone Return Air Port List
  ,                                       !- Primary Daylighting Control Name
  ,                                       !- Fraction of Zone Controlled by Primary Daylighting Control
  ,                                       !- Secondary Daylighting Control Name
  ,                                       !- Fraction of Zone Controlled by Secondary Daylighting Control
  ,                                       !- Illuminance Map Name
  ,                                       !- Group Rendering Name
  ,                                       !- Thermostat Name
  No;                                     !- Use Ideal Air Loads

OS:Node,
  {1f03ed98-c8de-4f12-bd09-cac8e9195f64}, !- Handle
  Node 2,                                 !- Name
  {e75472fd-4b97-4450-b73a-4c407a4a2040}, !- Inlet Port
  ;                                       !- Outlet Port

OS:Connection,
  {e75472fd-4b97-4450-b73a-4c407a4a2040}, !- Handle
  {46df27eb-1bf0-4c6d-a5d9-00cd0fd247e4}, !- Name
  {bcaeb43e-c961-4f65-9091-db3f87e588bf}, !- Source Object
  11,                                     !- Outlet Port
  {1f03ed98-c8de-4f12-bd09-cac8e9195f64}, !- Target Object
  2;                                      !- Inlet Port

OS:PortList,
  {cbb882c7-9036-44d1-b3b9-975ee05950fd}, !- Handle
  {7e35881e-28ea-4a34-87e6-8f728326c88d}, !- Name
  {bcaeb43e-c961-4f65-9091-db3f87e588bf}; !- HVAC Component

OS:PortList,
  {e4212aa3-96a7-44ee-b800-afa8d2695259}, !- Handle
  {05cda799-ba83-4e06-84f7-97dd2fa653af}, !- Name
  {bcaeb43e-c961-4f65-9091-db3f87e588bf}; !- HVAC Component

OS:PortList,
  {f38cd05d-5b57-4476-a8b8-fabff45465d6}, !- Handle
  {2c21f040-10f7-436b-9abb-4adda1f68d7f}, !- Name
  {bcaeb43e-c961-4f65-9091-db3f87e588bf}; !- HVAC Component

OS:Sizing:Zone,
  {ce895815-4552-4297-b5e5-fc489d31352f}, !- Handle
  {bcaeb43e-c961-4f65-9091-db3f87e588bf}, !- Zone or ZoneList Name
  SupplyAirTemperature,                   !- Zone Cooling Design Supply Air Temperature Input Method
  14,                                     !- Zone Cooling Design Supply Air Temperature {C}
  11.11,                                  !- Zone Cooling Design Supply Air Temperature Difference {deltaC}
  SupplyAirTemperature,                   !- Zone Heating Design Supply Air Temperature Input Method
  40,                                     !- Zone Heating Design Supply Air Temperature {C}
  11.11,                                  !- Zone Heating Design Supply Air Temperature Difference {deltaC}
  0.0085,                                 !- Zone Cooling Design Supply Air Humidity Ratio {kg-H2O/kg-air}
  0.008,                                  !- Zone Heating Design Supply Air Humidity Ratio {kg-H2O/kg-air}
  ,                                       !- Zone Heating Sizing Factor
  ,                                       !- Zone Cooling Sizing Factor
  DesignDay,                              !- Cooling Design Air Flow Method
  ,                                       !- Cooling Design Air Flow Rate {m3/s}
  ,                                       !- Cooling Minimum Air Flow per Zone Floor Area {m3/s-m2}
  ,                                       !- Cooling Minimum Air Flow {m3/s}
  ,                                       !- Cooling Minimum Air Flow Fraction
  DesignDay,                              !- Heating Design Air Flow Method
  ,                                       !- Heating Design Air Flow Rate {m3/s}
  ,                                       !- Heating Maximum Air Flow per Zone Floor Area {m3/s-m2}
  ,                                       !- Heating Maximum Air Flow {m3/s}
  ,                                       !- Heating Maximum Air Flow Fraction
  ,                                       !- Design Zone Air Distribution Effectiveness in Cooling Mode
  ,                                       !- Design Zone Air Distribution Effectiveness in Heating Mode
  No,                                     !- Account for Dedicated Outdoor Air System
  NeutralSupplyAir,                       !- Dedicated Outdoor Air System Control Strategy
  autosize,                               !- Dedicated Outdoor Air Low Setpoint Temperature for Design {C}
  autosize;                               !- Dedicated Outdoor Air High Setpoint Temperature for Design {C}

OS:ZoneHVAC:EquipmentList,
  {cbf7e87b-f5e3-4c36-8b0d-056121ba7df7}, !- Handle
  Zone HVAC Equipment List 2,             !- Name
  {bcaeb43e-c961-4f65-9091-db3f87e588bf}; !- Thermal Zone

OS:Space,
  {1a5e5628-f4d6-4519-ae4f-5181bb118cf7}, !- Handle
  garage space,                           !- Name
  {61e54c92-2809-43c2-b1b6-95bf35a2f2dc}, !- Space Type Name
  ,                                       !- Default Construction Set Name
  ,                                       !- Default Schedule Set Name
  -0,                                     !- Direction of Relative North {deg}
  0,                                      !- X Origin {m}
  0,                                      !- Y Origin {m}
  0,                                      !- Z Origin {m}
  ,                                       !- Building Story Name
  {bcaeb43e-c961-4f65-9091-db3f87e588bf}; !- Thermal Zone Name

OS:Surface,
  {83f33366-d50b-45d5-81c5-44110ef76393}, !- Handle
  Surface 1,                              !- Name
  Floor,                                  !- Surface Type
  {660c72ee-79e5-455d-891a-dc86c4ae7786}, !- Construction Name
  {1a5e5628-f4d6-4519-ae4f-5181bb118cf7}, !- Space Name
  Foundation,                             !- Outside Boundary Condition
  {fe682336-53bc-4fa6-a928-c1dc43d1ed2b}, !- Outside Boundary Condition Object
  NoSun,                                  !- Sun Exposure
  NoWind,                                 !- Wind Exposure
  ,                                       !- View Factor to Ground
  ,                                       !- Number of Vertices
  8.91701625975123, -3.048, 0,            !- X,Y,Z Vertex 1 {m}
  8.91701625975123, 3.048, 0,             !- X,Y,Z Vertex 2 {m}
  12.5746162597512, 3.048, 0,             !- X,Y,Z Vertex 3 {m}
  12.5746162597512, -3.048, 0;            !- X,Y,Z Vertex 4 {m}

OS:Surface,
  {bbc96698-d5ba-4db9-bef0-8cc4e3c166af}, !- Handle
  Surface 2,                              !- Name
  Wall,                                   !- Surface Type
  {5efbb410-ef02-4932-8073-a46daa5c0db9}, !- Construction Name
  {1a5e5628-f4d6-4519-ae4f-5181bb118cf7}, !- Space Name
  Surface,                                !- Outside Boundary Condition
  {abb34d91-ad91-4d12-b66e-037852abf227}, !- Outside Boundary Condition Object
  NoSun,                                  !- Sun Exposure
  NoWind,                                 !- Wind Exposure
  ,                                       !- View Factor to Ground
  ,                                       !- Number of Vertices
  8.91701625975123, 3.048, 2.4384,        !- X,Y,Z Vertex 1 {m}
  8.91701625975123, 3.048, 0,             !- X,Y,Z Vertex 2 {m}
  8.91701625975123, 0, 0,                 !- X,Y,Z Vertex 3 {m}
  8.91701625975123, 0, 2.4384;            !- X,Y,Z Vertex 4 {m}

OS:Surface,
  {6babc65f-cd53-41b9-a11c-381d99e69b46}, !- Handle
  Surface 3,                              !- Name
  Wall,                                   !- Surface Type
  {5efbb410-ef02-4932-8073-a46daa5c0db9}, !- Construction Name
  {1a5e5628-f4d6-4519-ae4f-5181bb118cf7}, !- Space Name
  Surface,                                !- Outside Boundary Condition
  {70ec420d-807a-4cf4-b88b-7bba8432ae7c}, !- Outside Boundary Condition Object
  NoSun,                                  !- Sun Exposure
  NoWind,                                 !- Wind Exposure
  ,                                       !- View Factor to Ground
  ,                                       !- Number of Vertices
  12.5746162597512, 3.048, 2.4384,        !- X,Y,Z Vertex 1 {m}
  12.5746162597512, 3.048, 0,             !- X,Y,Z Vertex 2 {m}
  8.91701625975123, 3.048, 0,             !- X,Y,Z Vertex 3 {m}
  8.91701625975123, 3.048, 2.4384;        !- X,Y,Z Vertex 4 {m}

OS:Surface,
  {060f69b8-79a3-4aa6-8c8a-1bb6ec36d2d6}, !- Handle
  Surface 4,                              !- Name
  Wall,                                   !- Surface Type
  {34a2b7d7-188d-4ca3-b530-c02e1d57bd0f}, !- Construction Name
  {1a5e5628-f4d6-4519-ae4f-5181bb118cf7}, !- Space Name
  Outdoors,                               !- Outside Boundary Condition
  ,                                       !- Outside Boundary Condition Object
  SunExposed,                             !- Sun Exposure
  WindExposed,                            !- Wind Exposure
  ,                                       !- View Factor to Ground
  ,                                       !- Number of Vertices
  12.5746162597512, -3.048, 2.4384,       !- X,Y,Z Vertex 1 {m}
  12.5746162597512, -3.048, 0,            !- X,Y,Z Vertex 2 {m}
  12.5746162597512, 3.048, 0,             !- X,Y,Z Vertex 3 {m}