!- NOTE: Auto-generated from /test/osw_files/SFD_2000sqft_2story_SL_GRG_FR_3Beds_2Baths_Denver_Furnace_CentralAC.osw

OS:Version,
  {edf060df-531c-4cba-8532-1858e480828d}, !- Handle
  2.9.0;                                  !- Version Identifier

OS:SimulationControl,
  {80a4cd7d-0ede-4782-9ca2-b41c47190a62}, !- Handle
  ,                                       !- Do Zone Sizing Calculation
  ,                                       !- Do System Sizing Calculation
  ,                                       !- Do Plant Sizing Calculation
  No;                                     !- Run Simulation for Sizing Periods

OS:Timestep,
  {e3661f32-3679-42ba-ab45-d7011cf51495}, !- Handle
  6;                                      !- Number of Timesteps per Hour

OS:ShadowCalculation,
  {48e655b5-88fa-4a9a-a9ed-ddf66fb9f75a}, !- Handle
  20,                                     !- Calculation Frequency
  200;                                    !- Maximum Figures in Shadow Overlap Calculations

OS:SurfaceConvectionAlgorithm:Outside,
  {da38bba8-6b3b-4013-ab90-b38a90035aa0}, !- Handle
  DOE-2;                                  !- Algorithm

OS:SurfaceConvectionAlgorithm:Inside,
  {700eec2c-14ee-4dcc-aa70-d0c2fb2b6c3d}, !- Handle
  TARP;                                   !- Algorithm

OS:ZoneCapacitanceMultiplier:ResearchSpecial,
  {f8848bd2-cdb3-48d0-a210-d71e4fbfaad4}, !- Handle
  ,                                       !- Temperature Capacity Multiplier
  15,                                     !- Humidity Capacity Multiplier
  ;                                       !- Carbon Dioxide Capacity Multiplier

OS:RunPeriod,
  {4e6cbd17-1c44-4902-8745-972171e64867}, !- Handle
  Run Period 1,                           !- Name
  1,                                      !- Begin Month
  1,                                      !- Begin Day of Month
  12,                                     !- End Month
  31,                                     !- End Day of Month
  ,                                       !- Use Weather File Holidays and Special Days
  ,                                       !- Use Weather File Daylight Saving Period
  ,                                       !- Apply Weekend Holiday Rule
  ,                                       !- Use Weather File Rain Indicators
  ,                                       !- Use Weather File Snow Indicators
  ;                                       !- Number of Times Runperiod to be Repeated

OS:YearDescription,
  {6cd8ed2d-9600-420f-bda3-f9c543166b99}, !- Handle
  2007,                                   !- Calendar Year
  ,                                       !- Day of Week for Start Day
  ;                                       !- Is Leap Year

OS:ThermalZone,
  {034f2aac-5b00-4214-947a-ab96dd7ab297}, !- Handle
  living zone,                            !- Name
  ,                                       !- Multiplier
  ,                                       !- Ceiling Height {m}
  ,                                       !- Volume {m3}
  ,                                       !- Floor Area {m2}
  ,                                       !- Zone Inside Convection Algorithm
  ,                                       !- Zone Outside Convection Algorithm
  ,                                       !- Zone Conditioning Equipment List Name
  {c84f87ad-421f-4a03-86b4-dbe667dd08ba}, !- Zone Air Inlet Port List
  {a264ed1e-e76a-4d12-901a-d286183d4ee6}, !- Zone Air Exhaust Port List
  {c7199fe9-50f9-49f2-8279-27b0a247a5c9}, !- Zone Air Node Name
  {5ed3362d-0e7d-4f38-a42a-51e57d89b77d}, !- Zone Return Air Port List
  ,                                       !- Primary Daylighting Control Name
  ,                                       !- Fraction of Zone Controlled by Primary Daylighting Control
  ,                                       !- Secondary Daylighting Control Name
  ,                                       !- Fraction of Zone Controlled by Secondary Daylighting Control
  ,                                       !- Illuminance Map Name
  ,                                       !- Group Rendering Name
  {f3b00e2f-0ebf-4367-b873-77a25bf61873}, !- Thermostat Name
  No;                                     !- Use Ideal Air Loads

OS:Node,
  {c7479bc0-bf6e-4b41-8e7a-dfec313c7917}, !- Handle
  Node 1,                                 !- Name
  {c7199fe9-50f9-49f2-8279-27b0a247a5c9}, !- Inlet Port
  ;                                       !- Outlet Port

OS:Connection,
  {c7199fe9-50f9-49f2-8279-27b0a247a5c9}, !- Handle
  {013d7204-8c3c-4f50-af43-1ea97b4ba36c}, !- Name
  {034f2aac-5b00-4214-947a-ab96dd7ab297}, !- Source Object
  11,                                     !- Outlet Port
  {c7479bc0-bf6e-4b41-8e7a-dfec313c7917}, !- Target Object
  2;                                      !- Inlet Port

OS:PortList,
  {c84f87ad-421f-4a03-86b4-dbe667dd08ba}, !- Handle
  {9de5abd0-e5b9-4c86-bc06-4ebef391ec37}, !- Name
  {034f2aac-5b00-4214-947a-ab96dd7ab297}, !- HVAC Component
  {0539971c-e511-4c23-b395-98b77fccc0a9}, !- Port 1
  {1cc3e228-4fad-4b2f-bf15-729cabf2ca7c}; !- Port 2

OS:PortList,
  {a264ed1e-e76a-4d12-901a-d286183d4ee6}, !- Handle
  {b23c0eb8-448d-4353-a815-71ae15e3772a}, !- Name
  {034f2aac-5b00-4214-947a-ab96dd7ab297}; !- HVAC Component

OS:PortList,
  {5ed3362d-0e7d-4f38-a42a-51e57d89b77d}, !- Handle
  {53b2cc73-2337-4a84-adee-82bcb8beaa9e}, !- Name
  {034f2aac-5b00-4214-947a-ab96dd7ab297}, !- HVAC Component
  {c5bcd3de-048b-49a5-aa05-33d13128562b}, !- Port 1
  {a4a78038-b00c-43eb-9684-f358c639b813}; !- Port 2

OS:Sizing:Zone,
  {bb63a3c3-f936-4dcd-9f92-c9a5ad29b58b}, !- Handle
  {034f2aac-5b00-4214-947a-ab96dd7ab297}, !- Zone or ZoneList Name
  SupplyAirTemperature,                   !- Zone Cooling Design Supply Air Temperature Input Method
  14,                                     !- Zone Cooling Design Supply Air Temperature {C}
  11.11,                                  !- Zone Cooling Design Supply Air Temperature Difference {deltaC}
  SupplyAirTemperature,                   !- Zone Heating Design Supply Air Temperature Input Method
  40,                                     !- Zone Heating Design Supply Air Temperature {C}
  11.11,                                  !- Zone Heating Design Supply Air Temperature Difference {deltaC}
  0.0085,                                 !- Zone Cooling Design Supply Air Humidity Ratio {kg-H2O/kg-air}
  0.008,                                  !- Zone Heating Design Supply Air Humidity Ratio {kg-H2O/kg-air}
  ,                                       !- Zone Heating Sizing Factor
  ,                                       !- Zone Cooling Sizing Factor
  DesignDay,                              !- Cooling Design Air Flow Method
  ,                                       !- Cooling Design Air Flow Rate {m3/s}
  ,                                       !- Cooling Minimum Air Flow per Zone Floor Area {m3/s-m2}
  ,                                       !- Cooling Minimum Air Flow {m3/s}
  ,                                       !- Cooling Minimum Air Flow Fraction
  DesignDay,                              !- Heating Design Air Flow Method
  ,                                       !- Heating Design Air Flow Rate {m3/s}
  ,                                       !- Heating Maximum Air Flow per Zone Floor Area {m3/s-m2}
  ,                                       !- Heating Maximum Air Flow {m3/s}
  ,                                       !- Heating Maximum Air Flow Fraction
  ,                                       !- Design Zone Air Distribution Effectiveness in Cooling Mode
  ,                                       !- Design Zone Air Distribution Effectiveness in Heating Mode
  No,                                     !- Account for Dedicated Outdoor Air System
  NeutralSupplyAir,                       !- Dedicated Outdoor Air System Control Strategy
  autosize,                               !- Dedicated Outdoor Air Low Setpoint Temperature for Design {C}
  autosize;                               !- Dedicated Outdoor Air High Setpoint Temperature for Design {C}

OS:ZoneHVAC:EquipmentList,
  {47bc3197-8293-4c8f-ac00-3c66c97766f2}, !- Handle
  Zone HVAC Equipment List 1,             !- Name
  {034f2aac-5b00-4214-947a-ab96dd7ab297}, !- Thermal Zone
  SequentialLoad,                         !- Load Distribution Scheme
  {ca33c567-ddc7-487f-8284-9cbf8724857e}, !- Zone Equipment 1
  1,                                      !- Zone Equipment Cooling Sequence 1
  1,                                      !- Zone Equipment Heating or No-Load Sequence 1
  ,                                       !- Zone Equipment Sequential Cooling Fraction Schedule Name 1
  ,                                       !- Zone Equipment Sequential Heating Fraction Schedule Name 1
  {99aa6578-a53c-4e14-8a17-f493a33e927b}, !- Zone Equipment 2
  2,                                      !- Zone Equipment Cooling Sequence 2
  2,                                      !- Zone Equipment Heating or No-Load Sequence 2
  ,                                       !- Zone Equipment Sequential Cooling Fraction Schedule Name 2
  ;                                       !- Zone Equipment Sequential Heating Fraction Schedule Name 2

OS:ThermalZone,
  {b4bbce9a-5ba9-4e5b-aac2-6066c580ff7e}, !- Handle
  garage zone,                            !- Name
  ,                                       !- Multiplier
  ,                                       !- Ceiling Height {m}
  ,                                       !- Volume {m3}
  ,                                       !- Floor Area {m2}
  ,                                       !- Zone Inside Convection Algorithm
  ,                                       !- Zone Outside Convection Algorithm
  ,                                       !- Zone Conditioning Equipment List Name
  {df0dc606-66d5-49ca-8df8-effb4fd8e19d}, !- Zone Air Inlet Port List
  {b8d66f7c-5727-4a4a-b59c-4317a662a2ed}, !- Zone Air Exhaust Port List
  {3ccab92e-26fa-47a9-b341-9d294aca3773}, !- Zone Air Node Name
  {f6706e5c-56a8-47b9-b35a-732e38f41846}, !- Zone Return Air Port List
  ,                                       !- Primary Daylighting Control Name
  ,                                       !- Fraction of Zone Controlled by Primary Daylighting Control
  ,                                       !- Secondary Daylighting Control Name
  ,                                       !- Fraction of Zone Controlled by Secondary Daylighting Control
  ,                                       !- Illuminance Map Name
  ,                                       !- Group Rendering Name
  ,                                       !- Thermostat Name
  No;                                     !- Use Ideal Air Loads

OS:Node,
  {2d967aed-cb18-432a-841c-260f8db050c9}, !- Handle
  Node 2,                                 !- Name
  {3ccab92e-26fa-47a9-b341-9d294aca3773}, !- Inlet Port
  ;                                       !- Outlet Port

OS:Connection,
  {3ccab92e-26fa-47a9-b341-9d294aca3773}, !- Handle
  {81fc26bc-5c9f-454a-9724-6608b2aeeba9}, !- Name
  {b4bbce9a-5ba9-4e5b-aac2-6066c580ff7e}, !- Source Object
  11,                                     !- Outlet Port
  {2d967aed-cb18-432a-841c-260f8db050c9}, !- Target Object
  2;                                      !- Inlet Port

OS:PortList,
  {df0dc606-66d5-49ca-8df8-effb4fd8e19d}, !- Handle
  {b17db877-dade-45b9-94db-93a935196b86}, !- Name
  {b4bbce9a-5ba9-4e5b-aac2-6066c580ff7e}; !- HVAC Component

OS:PortList,
  {b8d66f7c-5727-4a4a-b59c-4317a662a2ed}, !- Handle
  {b7f51c6f-afcf-4dd8-bc7a-4d3327f5ca0f}, !- Name
  {b4bbce9a-5ba9-4e5b-aac2-6066c580ff7e}; !- HVAC Component

OS:PortList,
  {f6706e5c-56a8-47b9-b35a-732e38f41846}, !- Handle
  {acfb95f3-abdf-40e5-b134-b1ae6d7c237f}, !- Name
  {b4bbce9a-5ba9-4e5b-aac2-6066c580ff7e}; !- HVAC Component

OS:Sizing:Zone,
  {e06e9f2c-c753-4f3d-a62e-1f6aa0e254b0}, !- Handle
  {b4bbce9a-5ba9-4e5b-aac2-6066c580ff7e}, !- Zone or ZoneList Name
  SupplyAirTemperature,                   !- Zone Cooling Design Supply Air Temperature Input Method
  14,                                     !- Zone Cooling Design Supply Air Temperature {C}
  11.11,                                  !- Zone Cooling Design Supply Air Temperature Difference {deltaC}
  SupplyAirTemperature,                   !- Zone Heating Design Supply Air Temperature Input Method
  40,                                     !- Zone Heating Design Supply Air Temperature {C}
  11.11,                                  !- Zone Heating Design Supply Air Temperature Difference {deltaC}
  0.0085,                                 !- Zone Cooling Design Supply Air Humidity Ratio {kg-H2O/kg-air}
  0.008,                                  !- Zone Heating Design Supply Air Humidity Ratio {kg-H2O/kg-air}
  ,                                       !- Zone Heating Sizing Factor
  ,                                       !- Zone Cooling Sizing Factor
  DesignDay,                              !- Cooling Design Air Flow Method
  ,                                       !- Cooling Design Air Flow Rate {m3/s}
  ,                                       !- Cooling Minimum Air Flow per Zone Floor Area {m3/s-m2}
  ,                                       !- Cooling Minimum Air Flow {m3/s}
  ,                                       !- Cooling Minimum Air Flow Fraction
  DesignDay,                              !- Heating Design Air Flow Method
  ,                                       !- Heating Design Air Flow Rate {m3/s}
  ,                                       !- Heating Maximum Air Flow per Zone Floor Area {m3/s-m2}
  ,                                       !- Heating Maximum Air Flow {m3/s}
  ,                                       !- Heating Maximum Air Flow Fraction
  ,                                       !- Design Zone Air Distribution Effectiveness in Cooling Mode
  ,                                       !- Design Zone Air Distribution Effectiveness in Heating Mode
  No,                                     !- Account for Dedicated Outdoor Air System
  NeutralSupplyAir,                       !- Dedicated Outdoor Air System Control Strategy
  autosize,                               !- Dedicated Outdoor Air Low Setpoint Temperature for Design {C}
  autosize;                               !- Dedicated Outdoor Air High Setpoint Temperature for Design {C}

OS:ZoneHVAC:EquipmentList,
  {7f0f36b3-21d9-40ed-b545-b8166677f319}, !- Handle
  Zone HVAC Equipment List 2,             !- Name
  {b4bbce9a-5ba9-4e5b-aac2-6066c580ff7e}; !- Thermal Zone

OS:Space,
  {dc73e753-7c94-40a9-82c2-729aa0040a5f}, !- Handle
  garage space,                           !- Name
  {8e1da618-75f1-4f59-90f2-9e537044e7a8}, !- Space Type Name
  ,                                       !- Default Construction Set Name
  ,                                       !- Default Schedule Set Name
  -0,                                     !- Direction of Relative North {deg}
  0,                                      !- X Origin {m}
  0,                                      !- Y Origin {m}
  0,                                      !- Z Origin {m}
  ,                                       !- Building Story Name
  {b4bbce9a-5ba9-4e5b-aac2-6066c580ff7e}; !- Thermal Zone Name

OS:Surface,
  {e686e2b6-4003-4ac6-b0f6-d46e5046d2f5}, !- Handle
  Surface 1,                              !- Name
  Floor,                                  !- Surface Type
  ,                                       !- Construction Name
  {dc73e753-7c94-40a9-82c2-729aa0040a5f}, !- Space Name
  Foundation,                             !- Outside Boundary Condition
  ,                                       !- Outside Boundary Condition Object
  NoSun,                                  !- Sun Exposure
  NoWind,                                 !- Wind Exposure
  ,                                       !- View Factor to Ground
  ,                                       !- Number of Vertices
  7.1330661888875, -3.048, 0,             !- X,Y,Z Vertex 1 {m}
  7.1330661888875, 3.048, 0,              !- X,Y,Z Vertex 2 {m}
  10.7906661888875, 3.048, 0,             !- X,Y,Z Vertex 3 {m}
  10.7906661888875, -3.048, 0;            !- X,Y,Z Vertex 4 {m}

OS:Surface,
  {c63e2277-b9c2-4c0a-bc6d-b6edca22f2dc}, !- Handle
  Surface 2,                              !- Name
  Wall,                                   !- Surface Type
  ,                                       !- Construction Name
  {dc73e753-7c94-40a9-82c2-729aa0040a5f}, !- Space Name
  Surface,                                !- Outside Boundary Condition
  {aeda873e-7982-4de8-9d7e-c0d5c1a7b4dc}, !- Outside Boundary Condition Object
  NoSun,                                  !- Sun Exposure
  NoWind,                                 !- Wind Exposure
  ,                                       !- View Factor to Ground
  ,                                       !- Number of Vertices
  7.1330661888875, 3.048, 2.4384,         !- X,Y,Z Vertex 1 {m}
  7.1330661888875, 3.048, 0,              !- X,Y,Z Vertex 2 {m}
  7.1330661888875, 0, 0,                  !- X,Y,Z Vertex 3 {m}
  7.1330661888875, 0, 2.4384;             !- X,Y,Z Vertex 4 {m}

OS:Surface,
  {c04e2b6c-c1ba-48b2-a245-cc8be34be484}, !- Handle
  Surface 3,                              !- Name
  Wall,                                   !- Surface Type
  ,                                       !- Construction Name
  {dc73e753-7c94-40a9-82c2-729aa0040a5f}, !- Space Name
  Surface,                                !- Outside Boundary Condition
  {62fd52db-12f1-430c-b29b-fc5b5a9082b4}, !- Outside Boundary Condition Object
  NoSun,                                  !- Sun Exposure
  NoWind,                                 !- Wind Exposure
  ,                                       !- View Factor to Ground
  ,                                       !- Number of Vertices
  10.7906661888875, 3.048, 2.4384,        !- X,Y,Z Vertex 1 {m}
  10.7906661888875, 3.048, 0,             !- X,Y,Z Vertex 2 {m}
  7.1330661888875, 3.048, 0,              !- X,Y,Z Vertex 3 {m}
  7.1330661888875, 3.048, 2.4384;         !- X,Y,Z Vertex 4 {m}

OS:Surface,
  {c131bb82-5ee8-4311-bbac-14177bccd156}, !- Handle
  Surface 4,                              !- Name
  Wall,                                   !- Surface Type
  ,                                       !- Construction Name
  {dc73e753-7c94-40a9-82c2-729aa0040a5f}, !- Space Name
  Outdoors,                               !- Outside Boundary Condition
  ,                                       !- Outside Boundary Condition Object
  SunExposed,                             !- Sun Exposure
  WindExposed,                            !- Wind Exposure
  ,                                       !- View Factor to Ground
  ,                                       !- Number of Vertices
  10.7906661888875, -3.048, 2.4384,       !- X,Y,Z Vertex 1 {m}
  10.7906661888875, -3.048, 0,            !- X,Y,Z Vertex 2 {m}
  10.7906661888875, 3.048, 0,             !- X,Y,Z Vertex 3 {m}
  10.7906661888875, 3.048, 2.4384;        !- X,Y,Z Vertex 4 {m}

OS:Surface,
  {b6bad68a-1d86-4cb3-90dc-c6414efe4211}, !- Handle
  Surface 5,                              !- Name
  Wall,                                   !- Surface Type
  ,                                       !- Construction Name
  {dc73e753-7c94-40a9-82c2-729aa0040a5f}, !- Space Name
  Outdoors,                               !- Outside Boundary Condition
  ,                                       !- Outside Boundary Condition Object
  SunExposed,                             !- Sun Exposure
  WindExposed,                            !- Wind Exposure
  ,                                       !- View Factor to Ground
  ,                                       !- Number of Vertices
  7.1330661888875, -3.048, 2.4384,        !- X,Y,Z Vertex 1 {m}
  7.1330661888875, -3.048, 0,             !- X,Y,Z Vertex 2 {m}
  10.7906661888875, -3.048, 0,            !- X,Y,Z Vertex 3 {m}
  10.7906661888875, -3.048, 2.4384;       !- X,Y,Z Vertex 4 {m}

OS:Surface,
  {37e6660e-654c-41b8-bd86-5fec089f7d16}, !- Handle
  Surface 6,                              !- Name
  RoofCeiling,                            !- Surface Type
  ,                                       !- Construction Name
  {dc73e753-7c94-40a9-82c2-729aa0040a5f}, !- Space Name
  Surface,                                !- Outside Boundary Condition
  {64a04fdb-693f-4de9-9865-25dfeae43796}, !- Outside Boundary Condition Object
  NoSun,                                  !- Sun Exposure
  NoWind,                                 !- Wind Exposure
  ,                                       !- View Factor to Ground
  ,                                       !- Number of Vertices
  10.7906661888875, -3.048, 2.4384,       !- X,Y,Z Vertex 1 {m}
  10.7906661888875, 3.048, 2.4384,        !- X,Y,Z Vertex 2 {m}
  7.1330661888875, 3.048, 2.4384,         !- X,Y,Z Vertex 3 {m}
  7.1330661888875, -3.048, 2.4384;        !- X,Y,Z Vertex 4 {m}

OS:SpaceType,
  {8e1da618-75f1-4f59-90f2-9e537044e7a8}, !- Handle
  Space Type 1,                           !- Name
  ,                                       !- Default Construction Set Name
  ,                                       !- Default Schedule Set Name
  ,                                       !- Group Rendering Name
  ,                                       !- Design Specification Outdoor Air Object Name
  ,                                       !- Standards Template
  ,                                       !- Standards Building Type
  garage;                                 !- Standards Space Type

OS:Space,
  {3ed2ba7f-8e8a-4142-8ab9-0a75c134397c}, !- Handle
  living space,                           !- Name
  {67a6b2df-7bfc-45d8-bf68-0ba1c2a7a288}, !- Space Type Name
  ,                                       !- Default Construction Set Name
  ,                                       !- Default Schedule Set Name
  -0,                                     !- Direction of Relative North {deg}
  0,                                      !- X Origin {m}
  0,                                      !- Y Origin {m}
  0,                                      !- Z Origin {m}
  ,                                       !- Building Story Name
  {034f2aac-5b00-4214-947a-ab96dd7ab297}, !- Thermal Zone Name
  ,                                       !- Part of Total Floor Area
  ,                                       !- Design Specification Outdoor Air Object Name
  {17d7b651-1f09-4e1e-9508-9a39675389f2}; !- Building Unit Name

OS:Surface,
  {18b55a14-4ad6-49d6-b5fd-e6142fbdeca3}, !- Handle
  Surface 7,                              !- Name
  Floor,                                  !- Surface Type
  ,                                       !- Construction Name
  {3ed2ba7f-8e8a-4142-8ab9-0a75c134397c}, !- Space Name
  Foundation,                             !- Outside Boundary Condition
  ,                                       !- Outside Boundary Condition Object
  NoSun,                                  !- Sun Exposure
  NoWind,                                 !- Wind Exposure
  ,                                       !- View Factor to Ground
  ,                                       !- Number of Vertices
  0, 0, 0,                                !- X,Y,Z Vertex 1 {m}
  0, 5.39533309444375, 0,                 !- X,Y,Z Vertex 2 {m}
  10.7906661888875, 5.39533309444375, 0,  !- X,Y,Z Vertex 3 {m}
  10.7906661888875, 3.048, 0,             !- X,Y,Z Vertex 4 {m}
  7.1330661888875, 3.048, 0,              !- X,Y,Z Vertex 5 {m}
  7.1330661888875, 0, 0;                  !- X,Y,Z Vertex 6 {m}

OS:Surface,
  {fc4cb6e8-9676-4ac8-ada8-f66741005e6d}, !- Handle
  Surface 8,                              !- Name
  Wall,                                   !- Surface Type
  ,                                       !- Construction Name
  {3ed2ba7f-8e8a-4142-8ab9-0a75c134397c}, !- Space Name
  Outdoors,                               !- Outside Boundary Condition
  ,                                       !- Outside Boundary Condition Object
  SunExposed,                             !- Sun Exposure
  WindExposed,                            !- Wind Exposure
  ,                                       !- View Factor to Ground
  ,                                       !- Number of Vertices
  0, 5.39533309444375, 2.4384,            !- X,Y,Z Vertex 1 {m}
  0, 5.39533309444375, 0,                 !- X,Y,Z Vertex 2 {m}
  0, 0, 0,                                !- X,Y,Z Vertex 3 {m}
  0, 0, 2.4384;                           !- X,Y,Z Vertex 4 {m}

OS:Surface,
  {419044d3-9c62-4445-b8ac-091ca17a3d46}, !- Handle
  Surface 9,                              !- Name
  Wall,                                   !- Surface Type
  ,                                       !- Construction Name
  {3ed2ba7f-8e8a-4142-8ab9-0a75c134397c}, !- Space Name
  Outdoors,                               !- Outside Boundary Condition
  ,                                       !- Outside Boundary Condition Object
  SunExposed,                             !- Sun Exposure
  WindExposed,                            !- Wind Exposure
  ,                                       !- View Factor to Ground
  ,                                       !- Number of Vertices
  10.7906661888875, 5.39533309444375, 2.4384, !- X,Y,Z Vertex 1 {m}
  10.7906661888875, 5.39533309444375, 0,  !- X,Y,Z Vertex 2 {m}
  0, 5.39533309444375, 0,                 !- X,Y,Z Vertex 3 {m}
  0, 5.39533309444375, 2.4384;            !- X,Y,Z Vertex 4 {m}

OS:Surface,
  {fe822b8f-7802-4601-b4a1-875bd903defd}, !- Handle
  Surface 10,                             !- Name
  Wall,                                   !- Surface Type
  ,                                       !- Construction Name
  {3ed2ba7f-8e8a-4142-8ab9-0a75c134397c}, !- Space Name
  Outdoors,                               !- Outside Boundary Condition
  ,                                       !- Outside Boundary Condition Object
  SunExposed,                             !- Sun Exposure
  WindExposed,                            !- Wind Exposure
  ,                                       !- View Factor to Ground
  ,                                       !- Number of Vertices
  10.7906661888875, 3.048, 2.4384,        !- X,Y,Z Vertex 1 {m}
  10.7906661888875, 3.048, 0,             !- X,Y,Z Vertex 2 {m}
  10.7906661888875, 5.39533309444375, 0,  !- X,Y,Z Vertex 3 {m}
  10.7906661888875, 5.39533309444375, 2.4384; !- X,Y,Z Vertex 4 {m}

OS:Surface,
  {62fd52db-12f1-430c-b29b-fc5b5a9082b4}, !- Handle
  Surface 11,                             !- Name
  Wall,                                   !- Surface Type
  ,                                       !- Construction Name
  {3ed2ba7f-8e8a-4142-8ab9-0a75c134397c}, !- Space Name
  Surface,                                !- Outside Boundary Condition
  {c04e2b6c-c1ba-48b2-a245-cc8be34be484}, !- Outside Boundary Condition Object
  NoSun,                                  !- Sun Exposure
  NoWind,                                 !- Wind Exposure
  ,                                       !- View Factor to Ground
  ,                                       !- Number of Vertices
  7.1330661888875, 3.048, 2.4384,         !- X,Y,Z Vertex 1 {m}
  7.1330661888875, 3.048, 0,              !- X,Y,Z Vertex 2 {m}
  10.7906661888875, 3.048, 0,             !- X,Y,Z Vertex 3 {m}
  10.7906661888875, 3.048, 2.4384;        !- X,Y,Z Vertex 4 {m}

OS:Surface,
  {aeda873e-7982-4de8-9d7e-c0d5c1a7b4dc}, !- Handle
  Surface 12,                             !- Name
  Wall,                                   !- Surface Type
  ,                                       !- Construction Name
  {3ed2ba7f-8e8a-4142-8ab9-0a75c134397c}, !- Space Name
  Surface,                                !- Outside Boundary Condition
  {c63e2277-b9c2-4c0a-bc6d-b6edca22f2dc}, !- Outside Boundary Condition Object
  NoSun,                                  !- Sun Exposure
  NoWind,                                 !- Wind Exposure
  ,                                       !- View Factor to Ground
  ,                                       !- Number of Vertices
  7.1330661888875, 0, 2.4384,             !- X,Y,Z Vertex 1 {m}
  7.1330661888875, 0, 0,                  !- X,Y,Z Vertex 2 {m}
  7.1330661888875, 3.048, 0,              !- X,Y,Z Vertex 3 {m}
  7.1330661888875, 3.048, 2.4384;         !- X,Y,Z Vertex 4 {m}

OS:Surface,
  {494e4e93-bc7d-44c9-b72a-9c1eca89235b}, !- Handle
  Surface 13,                             !- Name
  Wall,                                   !- Surface Type
  ,                                       !- Construction Name
  {3ed2ba7f-8e8a-4142-8ab9-0a75c134397c}, !- Space Name
  Outdoors,                               !- Outside Boundary Condition
  ,                                       !- Outside Boundary Condition Object
  SunExposed,                             !- Sun Exposure
  WindExposed,                            !- Wind Exposure
  ,                                       !- View Factor to Ground
  ,                                       !- Number of Vertices
  0, 0, 2.4384,                           !- X,Y,Z Vertex 1 {m}
  0, 0, 0,                                !- X,Y,Z Vertex 2 {m}
  7.1330661888875, 0, 0,                  !- X,Y,Z Vertex 3 {m}
  7.1330661888875, 0, 2.4384;             !- X,Y,Z Vertex 4 {m}

OS:Surface,
  {a420fafe-179c-4ce9-bc46-953681bfc1a9}, !- Handle
  Surface 14,                             !- Name
  RoofCeiling,                            !- Surface Type
  ,                                       !- Construction Name
  {3ed2ba7f-8e8a-4142-8ab9-0a75c134397c}, !- Space Name
  Surface,                                !- Outside Boundary Condition
  {5426af26-e981-461c-92c1-d14a7c76e1dd}, !- Outside Boundary Condition Object
  NoSun,                                  !- Sun Exposure
  NoWind,                                 !- Wind Exposure
  ,                                       !- View Factor to Ground
  ,                                       !- Number of Vertices
  7.1330661888875, 0, 2.4384,             !- X,Y,Z Vertex 1 {m}