!- NOTE: Auto-generated from /test/osw_files/SFD_1story_FB_UA_GRG_MSHP_FuelTanklessWH.osw

OS:Version,
  {a77017cf-65de-4a5c-9855-42450a247f64}, !- Handle
  2.7.0;                                  !- Version Identifier

OS:SimulationControl,
  {2e5cdc79-29e9-4c0a-96f9-873426b65e18}, !- Handle
  ,                                       !- Do Zone Sizing Calculation
  ,                                       !- Do System Sizing Calculation
  ,                                       !- Do Plant Sizing Calculation
  No;                                     !- Run Simulation for Sizing Periods

OS:Timestep,
  {006259c6-39a1-4985-a117-b0e2b67abb9b}, !- Handle
  6;                                      !- Number of Timesteps per Hour

OS:ShadowCalculation,
  {1171f252-e964-46dd-9e1e-6c71a0e865ce}, !- Handle
  20,                                     !- Calculation Frequency
  200;                                    !- Maximum Figures in Shadow Overlap Calculations

OS:SurfaceConvectionAlgorithm:Outside,
  {8f34ab66-b9b8-463d-adc5-b0450fd129a3}, !- Handle
  DOE-2;                                  !- Algorithm

OS:SurfaceConvectionAlgorithm:Inside,
  {47128d44-20d0-4b84-aa43-96d25798b718}, !- Handle
  TARP;                                   !- Algorithm

OS:ZoneCapacitanceMultiplier:ResearchSpecial,
  {b1252fb8-24f7-4946-8207-d26ebd0b1f0d}, !- Handle
  ,                                       !- Temperature Capacity Multiplier
  15,                                     !- Humidity Capacity Multiplier
  ;                                       !- Carbon Dioxide Capacity Multiplier

OS:RunPeriod,
  {32d94801-a134-4dd5-82f1-f720c3d49819}, !- Handle
  Run Period 1,                           !- Name
  1,                                      !- Begin Month
  1,                                      !- Begin Day of Month
  12,                                     !- End Month
  31,                                     !- End Day of Month
  ,                                       !- Use Weather File Holidays and Special Days
  ,                                       !- Use Weather File Daylight Saving Period
  ,                                       !- Apply Weekend Holiday Rule
  ,                                       !- Use Weather File Rain Indicators
  ,                                       !- Use Weather File Snow Indicators
  ;                                       !- Number of Times Runperiod to be Repeated

OS:WeatherFile,
  {26d18888-a8e3-4ac1-b9a6-a301edb85961}, !- Handle
  Denver Intl Ap,                         !- City
  CO,                                     !- State Province Region
  USA,                                    !- Country
  TMY3,                                   !- Data Source
  725650,                                 !- WMO Number
  39.83,                                  !- Latitude {deg}
  -104.65,                                !- Longitude {deg}
  -7,                                     !- Time Zone {hr}
  1650,                                   !- Elevation {m}
  file:../tests/USA_CO_Denver_Intl_AP_725650_TMY3.epw, !- Url
  E23378AA;                               !- Checksum

OS:AdditionalProperties,
  {cfae517a-ac78-48ef-9274-c2529afa9ca1}, !- Handle
  {26d18888-a8e3-4ac1-b9a6-a301edb85961}, !- Object Name
  EPWHeaderCity,                          !- Feature Name 1
  String,                                 !- Feature Data Type 1
  Denver Intl Ap,                         !- Feature Value 1
  EPWHeaderState,                         !- Feature Name 2
  String,                                 !- Feature Data Type 2
  CO,                                     !- Feature Value 2
  EPWHeaderCountry,                       !- Feature Name 3
  String,                                 !- Feature Data Type 3
  USA,                                    !- Feature Value 3
  EPWHeaderDataSource,                    !- Feature Name 4
  String,                                 !- Feature Data Type 4
  TMY3,                                   !- Feature Value 4
  EPWHeaderStation,                       !- Feature Name 5
  String,                                 !- Feature Data Type 5
  725650,                                 !- Feature Value 5
  EPWHeaderLatitude,                      !- Feature Name 6
  Double,                                 !- Feature Data Type 6
  39.829999999999998,                     !- Feature Value 6
  EPWHeaderLongitude,                     !- Feature Name 7
  Double,                                 !- Feature Data Type 7
  -104.65000000000001,                    !- Feature Value 7
  EPWHeaderTimezone,                      !- Feature Name 8
  Double,                                 !- Feature Data Type 8
  -7,                                     !- Feature Value 8
  EPWHeaderAltitude,                      !- Feature Name 9
  Double,                                 !- Feature Data Type 9
  5413.3858267716532,                     !- Feature Value 9
  EPWHeaderLocalPressure,                 !- Feature Name 10
  Double,                                 !- Feature Data Type 10
  0.81937567683596546,                    !- Feature Value 10
  EPWHeaderRecordsPerHour,                !- Feature Name 11
  Double,                                 !- Feature Data Type 11
  1,                                      !- Feature Value 11
  EPWDataAnnualAvgDrybulb,                !- Feature Name 12
  Double,                                 !- Feature Data Type 12
  51.575616438356228,                     !- Feature Value 12
  EPWDataAnnualMinDrybulb,                !- Feature Name 13
  Double,                                 !- Feature Data Type 13
  -2.9200000000000017,                    !- Feature Value 13
  EPWDataAnnualMaxDrybulb,                !- Feature Name 14
  Double,                                 !- Feature Data Type 14
  104,                                    !- Feature Value 14
  EPWDataCDD50F,                          !- Feature Name 15
  Double,                                 !- Feature Data Type 15
  3072.2925000000005,                     !- Feature Value 15
  EPWDataCDD65F,                          !- Feature Name 16
  Double,                                 !- Feature Data Type 16
  883.62000000000035,                     !- Feature Value 16
  EPWDataHDD50F,                          !- Feature Name 17
  Double,                                 !- Feature Data Type 17
  2497.1925000000001,                     !- Feature Value 17
  EPWDataHDD65F,                          !- Feature Name 18
  Double,                                 !- Feature Data Type 18
  5783.5200000000013,                     !- Feature Value 18
  EPWDataAnnualAvgWindspeed,              !- Feature Name 19
  Double,                                 !- Feature Data Type 19
  3.9165296803649667,                     !- Feature Value 19
  EPWDataMonthlyAvgDrybulbs,              !- Feature Name 20
  String,                                 !- Feature Data Type 20
  33.4191935483871&#4431.90142857142857&#4443.02620967741937&#4442.48624999999999&#4459.877741935483854&#4473.57574999999997&#4472.07975806451608&#4472.70008064516134&#4466.49200000000006&#4450.079112903225806&#4437.218250000000005&#4434.582177419354835, !- Feature Value 20
  EPWDataGroundMonthlyTemps,              !- Feature Name 21
  String,                                 !- Feature Data Type 21
  44.08306285945173&#4440.89570904991865&#4440.64045432632048&#4442.153016571250646&#4448.225111118704206&#4454.268919273837525&#4459.508577937551024&#4462.82777283423508&#4463.10975667174995&#4460.41014950381947&#4455.304105212311526&#4449.445696474514364, !- Feature Value 21
  EPWDataWSF,                             !- Feature Name 22
  Double,                                 !- Feature Data Type 22
  0.58999999999999997,                    !- Feature Value 22
  EPWDataMonthlyAvgDailyHighDrybulbs,     !- Feature Name 23
  String,                                 !- Feature Data Type 23
  47.41032258064516&#4446.58642857142857&#4455.15032258064517&#4453.708&#4472.80193548387098&#4488.67600000000002&#4486.1858064516129&#4485.87225806451613&#4482.082&#4463.18064516129033&#4448.73400000000001&#4448.87935483870968, !- Feature Value 23
  EPWDataMonthlyAvgDailyLowDrybulbs,      !- Feature Name 24
  String,                                 !- Feature Data Type 24
  19.347741935483874&#4419.856428571428573&#4430.316129032258065&#4431.112&#4447.41612903225806&#4457.901999999999994&#4459.063870967741934&#4460.956774193548384&#4452.352000000000004&#4438.41612903225806&#4427.002000000000002&#4423.02903225806451, !- Feature Value 24
  EPWDesignHeatingDrybulb,                !- Feature Name 25
  Double,                                 !- Feature Data Type 25
  6.8000000000000007,                     !- Feature Value 25
  EPWDesignHeatingWindspeed,              !- Feature Name 26
  Double,                                 !- Feature Data Type 26
  12,                                     !- Feature Value 26
  EPWDesignCoolingDrybulb,                !- Feature Name 27
  Double,                                 !- Feature Data Type 27
  91.760000000000005,                     !- Feature Value 27
  EPWDesignCoolingWetbulb,                !- Feature Name 28
  Double,                                 !- Feature Data Type 28
  60.079999999999998,                     !- Feature Value 28
  EPWDesignCoolingHumidityRatio,          !- Feature Name 29
  Double,                                 !- Feature Data Type 29
  0.006050392196571398,                   !- Feature Value 29
  EPWDesignCoolingWindspeed,              !- Feature Name 30
  Double,                                 !- Feature Data Type 30
  4.2000000000000002,                     !- Feature Value 30
  EPWDesignDailyTemperatureRange,         !- Feature Name 31
  Double,                                 !- Feature Data Type 31
  27.359999999999999,                     !- Feature Value 31
  EPWDesignDehumidDrybulb,                !- Feature Name 32
  Double,                                 !- Feature Data Type 32
  67.280000000000001,                     !- Feature Value 32
  EPWDesignDehumidHumidityRatio,          !- Feature Name 33
  Double,                                 !- Feature Data Type 33
  0.012295426899271008,                   !- Feature Value 33
  EPWDesignCoolingDirectNormal,           !- Feature Name 34
  Double,                                 !- Feature Data Type 34
  985,                                    !- Feature Value 34
  EPWDesignCoolingDiffuseHorizontal,      !- Feature Name 35
  Double,                                 !- Feature Data Type 35
  84;                                     !- Feature Value 35

OS:YearDescription,
  {55c64e31-48e6-4764-9009-2426be028906}, !- Handle
  ,                                       !- Calendar Year
  Monday;                                 !- Day of Week for Start Day

OS:Site,
  {36fc3227-2ccd-4b71-920a-1b4447dbd9f7}, !- Handle
  Denver Intl Ap_CO_USA,                  !- Name
  39.83,                                  !- Latitude {deg}
  -104.65,                                !- Longitude {deg}
  -7,                                     !- Time Zone {hr}
  1650,                                   !- Elevation {m}
  Suburbs;                                !- Terrain

OS:ClimateZones,
  {86e22d01-4554-46ca-bd23-7b460c17dfc2}, !- Handle
  ,                                       !- Active Institution
  ,                                       !- Active Year
  ,                                       !- Climate Zone Institution Name 1
  ,                                       !- Climate Zone Document Name 1
  ,                                       !- Climate Zone Document Year 1
  ,                                       !- Climate Zone Value 1
  Building America,                       !- Climate Zone Institution Name 2
  ,                                       !- Climate Zone Document Name 2
  0,                                      !- Climate Zone Document Year 2
  Cold;                                   !- Climate Zone Value 2

OS:Site:WaterMainsTemperature,
  {f4565042-50cd-465b-b4d9-3854c91eb24b}, !- Handle
  Correlation,                            !- Calculation Method
  ,                                       !- Temperature Schedule Name
  10.8753424657535,                       !- Annual Average Outdoor Air Temperature {C}
  23.1524007936508;                       !- Maximum Difference In Monthly Average Outdoor Air Temperatures {deltaC}

OS:RunPeriodControl:DaylightSavingTime,
  {438d9931-b363-4bf6-a572-de0221a87831}, !- Handle
  4/7,                                    !- Start Date
  10/26;                                  !- End Date

OS:Site:GroundTemperature:Deep,
  {94a3ad75-6672-441c-8211-15a866a462b7}, !- Handle
  10.8753424657535,                       !- January Deep Ground Temperature {C}
  10.8753424657535,                       !- February Deep Ground Temperature {C}
  10.8753424657535,                       !- March Deep Ground Temperature {C}
  10.8753424657535,                       !- April Deep Ground Temperature {C}
  10.8753424657535,                       !- May Deep Ground Temperature {C}
  10.8753424657535,                       !- June Deep Ground Temperature {C}
  10.8753424657535,                       !- July Deep Ground Temperature {C}
  10.8753424657535,                       !- August Deep Ground Temperature {C}
  10.8753424657535,                       !- September Deep Ground Temperature {C}
  10.8753424657535,                       !- October Deep Ground Temperature {C}
  10.8753424657535,                       !- November Deep Ground Temperature {C}
  10.8753424657535;                       !- December Deep Ground Temperature {C}

OS:ThermalZone,
  {1bdfb7a1-8a1d-485f-8306-98d372930023}, !- Handle
  living zone,                            !- Name
  ,                                       !- Multiplier
  ,                                       !- Ceiling Height {m}
  ,                                       !- Volume {m3}
  ,                                       !- Floor Area {m2}
  ,                                       !- Zone Inside Convection Algorithm
  ,                                       !- Zone Outside Convection Algorithm
  ,                                       !- Zone Conditioning Equipment List Name
  {2182d344-ce90-4dae-ab6d-61b83f5e697b}, !- Zone Air Inlet Port List
  {48f3b7ca-e0ad-426b-a52c-0105cd18bee8}, !- Zone Air Exhaust Port List
  {ed89e904-be69-4e18-87a3-734be85971cc}, !- Zone Air Node Name
  {699e5b74-2939-4b8f-aaeb-a92efa9f7363}, !- Zone Return Air Port List
  ,                                       !- Primary Daylighting Control Name
  ,                                       !- Fraction of Zone Controlled by Primary Daylighting Control
  ,                                       !- Secondary Daylighting Control Name
  ,                                       !- Fraction of Zone Controlled by Secondary Daylighting Control
  ,                                       !- Illuminance Map Name
  ,                                       !- Group Rendering Name
  {f0ce2eac-a231-4a46-b4ee-75d9a1a0aad6}, !- Thermostat Name
  No;                                     !- Use Ideal Air Loads

OS:Node,
  {94832402-7be3-46a5-b66f-75bb7ef57e2c}, !- Handle
  Node 1,                                 !- Name
  {ed89e904-be69-4e18-87a3-734be85971cc}, !- Inlet Port
  ;                                       !- Outlet Port

OS:Connection,
  {ed89e904-be69-4e18-87a3-734be85971cc}, !- Handle
  {593d5fef-10ce-4399-9f6c-ee6ad0123acd}, !- Name
  {1bdfb7a1-8a1d-485f-8306-98d372930023}, !- Source Object
  11,                                     !- Outlet Port
  {94832402-7be3-46a5-b66f-75bb7ef57e2c}, !- Target Object
  2;                                      !- Inlet Port

OS:PortList,
  {2182d344-ce90-4dae-ab6d-61b83f5e697b}, !- Handle
  {f3b1ef4d-d33e-4f57-8a3a-923808203a3d}, !- Name
  {1bdfb7a1-8a1d-485f-8306-98d372930023}, !- HVAC Component
  {1f7cf92b-8d76-4169-a377-2d8f81037609}, !- Port 1
  {a4c68689-ce4c-42a4-aa4b-5b6630406e5c}; !- Port 2

OS:PortList,
  {48f3b7ca-e0ad-426b-a52c-0105cd18bee8}, !- Handle
  {5fe9bbad-8cef-4edd-8a7d-b0d7b3dd513e}, !- Name
  {1bdfb7a1-8a1d-485f-8306-98d372930023}; !- HVAC Component

OS:PortList,
  {699e5b74-2939-4b8f-aaeb-a92efa9f7363}, !- Handle
  {39c5f068-028d-4f3f-9c4e-10d4193afe8f}, !- Name
  {1bdfb7a1-8a1d-485f-8306-98d372930023}, !- HVAC Component
  {93e9a1a9-30d4-45b5-ad2f-26642606fe7c}, !- Port 1
  {6a078b31-85fc-441d-b1f1-cc927411ebdf}; !- Port 2

OS:Sizing:Zone,
  {e93c5ff2-1b0f-4c10-9f19-a9f80fab2e93}, !- Handle
  {1bdfb7a1-8a1d-485f-8306-98d372930023}, !- Zone or ZoneList Name
  SupplyAirTemperature,                   !- Zone Cooling Design Supply Air Temperature Input Method
  14,                                     !- Zone Cooling Design Supply Air Temperature {C}
  11.11,                                  !- Zone Cooling Design Supply Air Temperature Difference {deltaC}
  SupplyAirTemperature,                   !- Zone Heating Design Supply Air Temperature Input Method
  40,                                     !- Zone Heating Design Supply Air Temperature {C}
  11.11,                                  !- Zone Heating Design Supply Air Temperature Difference {deltaC}
  0.0085,                                 !- Zone Cooling Design Supply Air Humidity Ratio {kg-H2O/kg-air}
  0.008,                                  !- Zone Heating Design Supply Air Humidity Ratio {kg-H2O/kg-air}
  ,                                       !- Zone Heating Sizing Factor
  ,                                       !- Zone Cooling Sizing Factor
  DesignDay,                              !- Cooling Design Air Flow Method
  ,                                       !- Cooling Design Air Flow Rate {m3/s}
  ,                                       !- Cooling Minimum Air Flow per Zone Floor Area {m3/s-m2}
  ,                                       !- Cooling Minimum Air Flow {m3/s}
  ,                                       !- Cooling Minimum Air Flow Fraction
  DesignDay,                              !- Heating Design Air Flow Method
  ,                                       !- Heating Design Air Flow Rate {m3/s}
  ,                                       !- Heating Maximum Air Flow per Zone Floor Area {m3/s-m2}
  ,                                       !- Heating Maximum Air Flow {m3/s}
  ,                                       !- Heating Maximum Air Flow Fraction
  ,                                       !- Design Zone Air Distribution Effectiveness in Cooling Mode
  ,                                       !- Design Zone Air Distribution Effectiveness in Heating Mode
  No,                                     !- Account for Dedicated Outdoor Air System
  NeutralSupplyAir,                       !- Dedicated Outdoor Air System Control Strategy
  autosize,                               !- Dedicated Outdoor Air Low Setpoint Temperature for Design {C}
  autosize;                               !- Dedicated Outdoor Air High Setpoint Temperature for Design {C}

OS:ZoneHVAC:EquipmentList,
  {07968fb9-521d-4bdd-ac84-c06402a0c20e}, !- Handle
  Zone HVAC Equipment List 1,             !- Name
  {1bdfb7a1-8a1d-485f-8306-98d372930023}, !- Thermal Zone
  SequentialLoad,                         !- Load Distribution Scheme
  {38a92877-474b-4281-a558-cededafbb9bc}, !- Zone Equipment 1
  1,                                      !- Zone Equipment Cooling Sequence 1
  1,                                      !- Zone Equipment Heating or No-Load Sequence 1
  {d7a1a071-ab43-43b4-8e7b-54e33261ffc6}, !- Zone Equipment 2
  2,                                      !- Zone Equipment Cooling Sequence 2
  2;                                      !- Zone Equipment Heating or No-Load Sequence 2

OS:ThermalZone,
  {4469b728-7380-42fd-9af9-799c554a5884}, !- Handle
  garage zone,                            !- Name
  ,                                       !- Multiplier
  ,                                       !- Ceiling Height {m}
  ,                                       !- Volume {m3}
  ,                                       !- Floor Area {m2}
  ,                                       !- Zone Inside Convection Algorithm
  ,                                       !- Zone Outside Convection Algorithm
  ,                                       !- Zone Conditioning Equipment List Name
  {855b752d-5c9d-40c6-98fc-5c301cfd0236}, !- Zone Air Inlet Port List
  {4fbbafa1-4472-477c-9d5d-fdce251f02c8}, !- Zone Air Exhaust Port List
  {ffb2f5ea-4465-4570-8696-5174ef2cbdc2}, !- Zone Air Node Name
  {793bee92-aaf0-431d-a135-eb66d14076eb}, !- Zone Return Air Port List
  ,                                       !- Primary Daylighting Control Name
  ,                                       !- Fraction of Zone Controlled by Primary Daylighting Control
  ,                                       !- Secondary Daylighting Control Name
  ,                                       !- Fraction of Zone Controlled by Secondary Daylighting Control
  ,                                       !- Illuminance Map Name
  ,                                       !- Group Rendering Name
  ,                                       !- Thermostat Name
  No;                                     !- Use Ideal Air Loads

OS:Node,
  {900cbbb0-ccd8-4be7-8551-9b94b288a847}, !- Handle
  Node 2,                                 !- Name
  {ffb2f5ea-4465-4570-8696-5174ef2cbdc2}, !- Inlet Port
  ;                                       !- Outlet Port

OS:Connection,
  {ffb2f5ea-4465-4570-8696-5174ef2cbdc2}, !- Handle
  {8cebd965-0cff-400c-94eb-8e43f9c72385}, !- Name
  {4469b728-7380-42fd-9af9-799c554a5884}, !- Source Object
  11,                                     !- Outlet Port
  {900cbbb0-ccd8-4be7-8551-9b94b288a847}, !- Target Object
  2;                                      !- Inlet Port

OS:PortList,
  {855b752d-5c9d-40c6-98fc-5c301cfd0236}, !- Handle
  {7096fe9c-4ab7-4843-b0bd-6e4f7651677f}, !- Name
  {4469b728-7380-42fd-9af9-799c554a5884}; !- HVAC Component

OS:PortList,
  {4fbbafa1-4472-477c-9d5d-fdce251f02c8}, !- Handle
  {c3bd910a-2c73-4771-bad8-d2315cd29238}, !- Name
  {4469b728-7380-42fd-9af9-799c554a5884}; !- HVAC Component

OS:PortList,
  {793bee92-aaf0-431d-a135-eb66d14076eb}, !- Handle
  {8e4ef4ad-d433-4282-9467-c715054318ce}, !- Name
  {4469b728-7380-42fd-9af9-799c554a5884}; !- HVAC Component

OS:Sizing:Zone,
  {8323bd2b-1642-4605-acf0-5619d498fdc5}, !- Handle
  {4469b728-7380-42fd-9af9-799c554a5884}, !- Zone or ZoneList Name
  SupplyAirTemperature,                   !- Zone Cooling Design Supply Air Temperature Input Method
  14,                                     !- Zone Cooling Design Supply Air Temperature {C}
  11.11,                                  !- Zone Cooling Design Supply Air Temperature Difference {deltaC}
  SupplyAirTemperature,                   !- Zone Heating Design Supply Air Temperature Input Method
  40,                                     !- Zone Heating Design Supply Air Temperature {C}
  11.11,                                  !- Zone Heating Design Supply Air Temperature Difference {deltaC}
  0.0085,                                 !- Zone Cooling Design Supply Air Humidity Ratio {kg-H2O/kg-air}
  0.008,                                  !- Zone Heating Design Supply Air Humidity Ratio {kg-H2O/kg-air}
  ,                                       !- Zone Heating Sizing Factor
  ,                                       !- Zone Cooling Sizing Factor
  DesignDay,                              !- Cooling Design Air Flow Method
  ,                                       !- Cooling Design Air Flow Rate {m3/s}
  ,                                       !- Cooling Minimum Air Flow per Zone Floor Area {m3/s-m2}
  ,                                       !- Cooling Minimum Air Flow {m3/s}
  ,                                       !- Cooling Minimum Air Flow Fraction
  DesignDay,                              !- Heating Design Air Flow Method
  ,                                       !- Heating Design Air Flow Rate {m3/s}
  ,                                       !- Heating Maximum Air Flow per Zone Floor Area {m3/s-m2}
  ,                                       !- Heating Maximum Air Flow {m3/s}
  ,                                       !- Heating Maximum Air Flow Fraction
  ,                                       !- Design Zone Air Distribution Effectiveness in Cooling Mode
  ,                                       !- Design Zone Air Distribution Effectiveness in Heating Mode
  No,                                     !- Account for Dedicated Outdoor Air System
  NeutralSupplyAir,                       !- Dedicated Outdoor Air System Control Strategy
  autosize,                               !- Dedicated Outdoor Air Low Setpoint Temperature for Design {C}
  autosize;                               !- Dedicated Outdoor Air High Setpoint Temperature for Design {C}

OS:ZoneHVAC:EquipmentList,
  {3827df7c-c468-4086-901d-0867532f8b6d}, !- Handle
  Zone HVAC Equipment List 2,             !- Name
  {4469b728-7380-42fd-9af9-799c554a5884}; !- Thermal Zone

OS:Space,
  {2c24bd9b-9d7d-4f42-a0c9-85ad2098d82d}, !- Handle
  garage space,                           !- Name
  {4413a85b-4c0d-4fa8-8c6f-4531719d5425}, !- Space Type Name
  ,                                       !- Default Construction Set Name
  ,                                       !- Default Schedule Set Name
  -0,                                     !- Direction of Relative North {deg}
  0,                                      !- X Origin {m}
  0,                                      !- Y Origin {m}
  0,                                      !- Z Origin {m}
  ,                                       !- Building Story Name
  {4469b728-7380-42fd-9af9-799c554a5884}; !- Thermal Zone Name

OS:Surface,
  {bb2cdc62-1bb6-4d9b-abef-6dda4bbe663d}, !- Handle
  Surface 1,                              !- Name
  Floor,                                  !- Surface Type
  {377e1a90-3500-46f4-b0c9-a0cffc8279e3}, !- Construction Name
  {2c24bd9b-9d7d-4f42-a0c9-85ad2098d82d}, !- Space Name
  Foundation,                             !- Outside Boundary Condition
  {507c0941-77f9-422c-a58d-73ca10ad3d65}, !- Outside Boundary Condition Object
  NoSun,                                  !- Sun Exposure
  NoWind,                                 !- Wind Exposure
  ,                                       !- View Factor to Ground
  ,                                       !- Number of Vertices
  16.3508427172132, -3.6576, 0,           !- X,Y,Z Vertex 1 {m}
  16.3508427172132, 3.6576, 0,            !- X,Y,Z Vertex 2 {m}
  20.0084427172132, 3.6576, 0,            !- X,Y,Z Vertex 3 {m}
  20.0084427172132, -3.6576, 0;           !- X,Y,Z Vertex 4 {m}

OS:Surface,
  {f9864918-a091-4633-abbd-8af86df9254c}, !- Handle
  Surface 2,                              !- Name
  Wall,                                   !- Surface Type
  {1c497128-6ba2-4010-b902-8cb2acc1dce0}, !- Construction Name
  {2c24bd9b-9d7d-4f42-a0c9-85ad2098d82d}, !- Space Name
  Surface,                                !- Outside Boundary Condition
  {1e76a254-3844-4f4c-b1a9-28a5901bf38d}, !- Outside Boundary Condition Object
  NoSun,                                  !- Sun Exposure
  NoWind,                                 !- Wind Exposure
  ,                                       !- View Factor to Ground
  ,                                       !- Number of Vertices
  16.3508427172132, 3.6576, 2.4384,       !- X,Y,Z Vertex 1 {m}
  16.3508427172132, 3.6576, 0,            !- X,Y,Z Vertex 2 {m}
  16.3508427172132, 0, 0,                 !- X,Y,Z Vertex 3 {m}
  16.3508427172132, 0, 2.4384;            !- X,Y,Z Vertex 4 {m}

OS:Surface,
  {4d73426c-a71f-4d7e-9535-a7ed774b276e}, !- Handle
  Surface 3,                              !- Name
  Wall,                                   !- Surface Type
  {1c497128-6ba2-4010-b902-8cb2acc1dce0}, !- Construction Name
  {2c24bd9b-9d7d-4f42-a0c9-85ad2098d82d}, !- Space Name
  Surface,                                !- Outside Boundary Condition
  {72533446-64a1-4f74-849e-02194822d3f7}, !- Outside Boundary Condition Object
  NoSun,                                  !- Sun Exposure
  NoWind,                                 !- Wind Exposure
  ,                                       !- View Factor to Ground
  ,                                       !- Number of Vertices
  20.0084427172132, 3.6576, 2.4384,       !- X,Y,Z Vertex 1 {m}
  20.0084427172132, 3.6576, 0,            !- X,Y,Z Vertex 2 {m}
  16.3508427172132, 3.6576, 0,            !- X,Y,Z Vertex 3 {m}
  16.3508427172132, 3.6576, 2.4384;       !- X,Y,Z Vertex 4 {m}

OS:Surface,
  {ba7cae93-b52f-4f63-813b-31b62384c94b}, !- Handle
  Surface 4,                              !- Name
  Wall,                                   !- Surface Type
  {28dec546-2edd-4c29-9240-078612993368}, !- Construction Name
  {2c24bd9b-9d7d-4f42-a0c9-85ad2098d82d}, !- Space Name
  Outdoors,                               !- Outside Boundary Condition
  ,                                       !- Outside Boundary Condition Object
  SunExposed,                             !- Sun Exposure
  WindExposed,                            !- Wind Exposure
  ,                                       !- View Factor to Ground
  ,                                       !- Number of Vertices
  20.0084427172132, -3.6576, 2.4384,      !- X,Y,Z Vertex 1 {m}
  20.0084427172132, -3.6576, 0,           !- X,Y,Z Vertex 2 {m}
  20.0084427172132, 3.6576, 0,            !- X,Y,Z Vertex 3 {m}
  20.0084427172132, 3.6576, 2.4384;       !- X,Y,Z Vertex 4 {m}

OS:Surface,
  {525f76aa-6fe4-4086-8b94-229229e408d5}, !- Handle
  Surface 5,                              !- Name
  Wall,                                   !- Surface Type
  {28dec546-2edd-4c29-9240-078612993368}, !- Construction Name
  {2c24bd9b-9d7d-4f42-a0c9-85ad2098d82d}, !- Space Name
  Outdoors,                               !- Outside Boundary Condition