!- NOTE: Auto-generated from /test/osw_files/SFD_2story_CS_UA_GRG_ASHPV_FuelTanklessWH.osw

OS:Version,
  {aa7e682c-a65f-4944-ad75-412efe36f61c}, !- Handle
  2.6.0;                                  !- Version Identifier

OS:WeatherFile,
  {145deb99-2733-44a8-8d3d-6235bbd4d802}, !- Handle
  Denver Intl Ap,                         !- City
  CO,                                     !- State Province Region
  USA,                                    !- Country
  TMY3,                                   !- Data Source
  725650,                                 !- WMO Number
  39.83,                                  !- Latitude {deg}
  -104.65,                                !- Longitude {deg}
  -7,                                     !- Time Zone {hr}
  1650,                                   !- Elevation {m}
  file:../tests/USA_CO_Denver_Intl_AP_725650_TMY3.epw, !- Url
  E23378AA;                               !- Checksum

OS:BuildingUnit,
  {3693fb18-c1f6-4e98-8eff-8fa942c6cc8c}, !- Handle
  EPWWeatherInfo,                         !- Name
  ,                                       !- Rendering Color
  Residential;                            !- Building Unit Type

OS:AdditionalProperties,
  {c0549a99-0359-4593-8f6e-5d2e67bf7a2e}, !- Handle
  {3693fb18-c1f6-4e98-8eff-8fa942c6cc8c}, !- Object Name
  EPWHeaderCity,                          !- Feature Name 1
  String,                                 !- Feature Data Type 1
  Denver Intl Ap,                         !- Feature Value 1
  EPWHeaderState,                         !- Feature Name 2
  String,                                 !- Feature Data Type 2
  CO,                                     !- Feature Value 2
  EPWHeaderCountry,                       !- Feature Name 3
  String,                                 !- Feature Data Type 3
  USA,                                    !- Feature Value 3
  EPWHeaderDataSource,                    !- Feature Name 4
  String,                                 !- Feature Data Type 4
  TMY3,                                   !- Feature Value 4
  EPWHeaderStation,                       !- Feature Name 5
  String,                                 !- Feature Data Type 5
  725650,                                 !- Feature Value 5
  EPWHeaderLatitude,                      !- Feature Name 6
  Double,                                 !- Feature Data Type 6
  39.829999999999998,                     !- Feature Value 6
  EPWHeaderLongitude,                     !- Feature Name 7
  Double,                                 !- Feature Data Type 7
  -104.65000000000001,                    !- Feature Value 7
  EPWHeaderTimezone,                      !- Feature Name 8
  Double,                                 !- Feature Data Type 8
  -7,                                     !- Feature Value 8
  EPWHeaderAltitude,                      !- Feature Name 9
  Double,                                 !- Feature Data Type 9
  5413.3858267716532,                     !- Feature Value 9
  EPWHeaderLocalPressure,                 !- Feature Name 10
  Double,                                 !- Feature Data Type 10
  0.81937567683596546,                    !- Feature Value 10
  EPWHeaderRecordsPerHour,                !- Feature Name 11
  Double,                                 !- Feature Data Type 11
  1,                                      !- Feature Value 11
  EPWDataAnnualAvgDrybulb,                !- Feature Name 12
  Double,                                 !- Feature Data Type 12
  51.575616438356228,                     !- Feature Value 12
  EPWDataAnnualMinDrybulb,                !- Feature Name 13
  Double,                                 !- Feature Data Type 13
  -2.9200000000000017,                    !- Feature Value 13
  EPWDataAnnualMaxDrybulb,                !- Feature Name 14
  Double,                                 !- Feature Data Type 14
  104,                                    !- Feature Value 14
  EPWDataCDD50F,                          !- Feature Name 15
  Double,                                 !- Feature Data Type 15
  3072.2925000000005,                     !- Feature Value 15
  EPWDataCDD65F,                          !- Feature Name 16
  Double,                                 !- Feature Data Type 16
  883.62000000000035,                     !- Feature Value 16
  EPWDataHDD50F,                          !- Feature Name 17
  Double,                                 !- Feature Data Type 17
  2497.1925000000001,                     !- Feature Value 17
  EPWDataHDD65F,                          !- Feature Name 18
  Double,                                 !- Feature Data Type 18
  5783.5200000000013,                     !- Feature Value 18
  EPWDataAnnualAvgWindspeed,              !- Feature Name 19
  Double,                                 !- Feature Data Type 19
  3.9165296803649667,                     !- Feature Value 19
  EPWDataMonthlyAvgDrybulbs,              !- Feature Name 20
  String,                                 !- Feature Data Type 20
  33.4191935483871&#4431.90142857142857&#4443.02620967741937&#4442.48624999999999&#4459.877741935483854&#4473.57574999999997&#4472.07975806451608&#4472.70008064516134&#4466.49200000000006&#4450.079112903225806&#4437.218250000000005&#4434.582177419354835, !- Feature Value 20
  EPWDataGroundMonthlyTemps,              !- Feature Name 21
  String,                                 !- Feature Data Type 21
  44.08306285945173&#4440.89570904991865&#4440.64045432632048&#4442.153016571250646&#4448.225111118704206&#4454.268919273837525&#4459.508577937551024&#4462.82777283423508&#4463.10975667174995&#4460.41014950381947&#4455.304105212311526&#4449.445696474514364, !- Feature Value 21
  EPWDataWSF,                             !- Feature Name 22
  Double,                                 !- Feature Data Type 22
  0.58999999999999997,                    !- Feature Value 22
  EPWDataMonthlyAvgDailyHighDrybulbs,     !- Feature Name 23
  String,                                 !- Feature Data Type 23
  47.41032258064516&#4446.58642857142857&#4455.15032258064517&#4453.708&#4472.80193548387098&#4488.67600000000002&#4486.1858064516129&#4485.87225806451613&#4482.082&#4463.18064516129033&#4448.73400000000001&#4448.87935483870968, !- Feature Value 23
  EPWDataMonthlyAvgDailyLowDrybulbs,      !- Feature Name 24
  String,                                 !- Feature Data Type 24
  19.347741935483874&#4419.856428571428573&#4430.316129032258065&#4431.112&#4447.41612903225806&#4457.901999999999994&#4459.063870967741934&#4460.956774193548384&#4452.352000000000004&#4438.41612903225806&#4427.002000000000002&#4423.02903225806451, !- Feature Value 24
  EPWDesignHeatingDrybulb,                !- Feature Name 25
  Double,                                 !- Feature Data Type 25
  6.8000000000000007,                     !- Feature Value 25
  EPWDesignHeatingWindspeed,              !- Feature Name 26
  Double,                                 !- Feature Data Type 26
  12,                                     !- Feature Value 26
  EPWDesignCoolingDrybulb,                !- Feature Name 27
  Double,                                 !- Feature Data Type 27
  91.760000000000005,                     !- Feature Value 27
  EPWDesignCoolingWetbulb,                !- Feature Name 28
  Double,                                 !- Feature Data Type 28
  60.079999999999998,                     !- Feature Value 28
  EPWDesignCoolingHumidityRatio,          !- Feature Name 29
  Double,                                 !- Feature Data Type 29
  0.006050392196571398,                   !- Feature Value 29
  EPWDesignCoolingWindspeed,              !- Feature Name 30
  Double,                                 !- Feature Data Type 30
  4.2000000000000002,                     !- Feature Value 30
  EPWDesignDailyTemperatureRange,         !- Feature Name 31
  Double,                                 !- Feature Data Type 31
  27.359999999999999,                     !- Feature Value 31
  EPWDesignDehumidDrybulb,                !- Feature Name 32
  Double,                                 !- Feature Data Type 32
  67.280000000000001,                     !- Feature Value 32
  EPWDesignDehumidHumidityRatio,          !- Feature Name 33
  Double,                                 !- Feature Data Type 33
  0.012295426899271008,                   !- Feature Value 33
  EPWDesignCoolingDirectNormal,           !- Feature Name 34
  Double,                                 !- Feature Data Type 34
  985,                                    !- Feature Value 34
  EPWDesignCoolingDiffuseHorizontal,      !- Feature Name 35
  Double,                                 !- Feature Data Type 35
  84;                                     !- Feature Value 35

OS:YearDescription,
  {edc371ca-c508-4735-b0ab-3a885b15497b}, !- Handle
  ,                                       !- Calendar Year
  Monday;                                 !- Day of Week for Start Day

OS:Site,
  {c19da214-4e66-4693-8c67-5ef4f731a5bd}, !- Handle
  Denver Intl Ap_CO_USA,                  !- Name
  39.83,                                  !- Latitude {deg}
  -104.65,                                !- Longitude {deg}
  -7,                                     !- Time Zone {hr}
  1650,                                   !- Elevation {m}
  Suburbs;                                !- Terrain

OS:ClimateZones,
  {217729e0-b5ab-4d74-9876-28d957178ac7}, !- Handle
  ,                                       !- Active Institution
  ,                                       !- Active Year
  ,                                       !- Climate Zone Institution Name 1
  ,                                       !- Climate Zone Document Name 1
  ,                                       !- Climate Zone Document Year 1
  ,                                       !- Climate Zone Value 1
  Building America,                       !- Climate Zone Institution Name 2
  ,                                       !- Climate Zone Document Name 2
  0,                                      !- Climate Zone Document Year 2
  Cold;                                   !- Climate Zone Value 2

OS:Site:WaterMainsTemperature,
  {1c112e9f-3f39-412a-84a3-406c60c9bcbb}, !- Handle
  Correlation,                            !- Calculation Method
  ,                                       !- Temperature Schedule Name
  10.8753424657535,                       !- Annual Average Outdoor Air Temperature {C}
  23.1524007936508;                       !- Maximum Difference In Monthly Average Outdoor Air Temperatures {deltaC}

OS:RunPeriodControl:DaylightSavingTime,
  {a77ec14d-7f1c-4c54-9ed0-a57815e4ad51}, !- Handle
  4/7,                                    !- Start Date
  10/26;                                  !- End Date

OS:Site:GroundTemperature:Deep,
  {f8baa903-dc9c-437d-9d45-486338c7bcea}, !- Handle
  10.8753424657535,                       !- January Deep Ground Temperature {C}
  10.8753424657535,                       !- February Deep Ground Temperature {C}
  10.8753424657535,                       !- March Deep Ground Temperature {C}
  10.8753424657535,                       !- April Deep Ground Temperature {C}
  10.8753424657535,                       !- May Deep Ground Temperature {C}
  10.8753424657535,                       !- June Deep Ground Temperature {C}
  10.8753424657535,                       !- July Deep Ground Temperature {C}
  10.8753424657535,                       !- August Deep Ground Temperature {C}
  10.8753424657535,                       !- September Deep Ground Temperature {C}
  10.8753424657535,                       !- October Deep Ground Temperature {C}
  10.8753424657535,                       !- November Deep Ground Temperature {C}
  10.8753424657535;                       !- December Deep Ground Temperature {C}

OS:ThermalZone,
  {38ff26f8-511b-4128-8748-31b76082c0fc}, !- Handle
  living zone,                            !- Name
  ,                                       !- Multiplier
  ,                                       !- Ceiling Height {m}
  ,                                       !- Volume {m3}
  ,                                       !- Floor Area {m2}
  ,                                       !- Zone Inside Convection Algorithm
  ,                                       !- Zone Outside Convection Algorithm
  ,                                       !- Zone Conditioning Equipment List Name
  {90acea8a-554c-4397-84ff-d8f265c5f07f}, !- Zone Air Inlet Port List
  {4c2a594c-57db-4a36-9e2b-43a280e4312b}, !- Zone Air Exhaust Port List
  {0893125f-4474-4a2e-a634-e598dc66a87b}, !- Zone Air Node Name
  {f0c5fc65-88c4-453b-95b0-88ee51582742}, !- Zone Return Air Node Name
  ,                                       !- Primary Daylighting Control Name
  ,                                       !- Fraction of Zone Controlled by Primary Daylighting Control
  ,                                       !- Secondary Daylighting Control Name
  ,                                       !- Fraction of Zone Controlled by Secondary Daylighting Control
  ,                                       !- Illuminance Map Name
  ,                                       !- Group Rendering Name
  {496d6bff-b9cf-42de-b6dc-65bafb46a3a2}, !- Thermostat Name
  No;                                     !- Use Ideal Air Loads

OS:Node,
  {dd9d262d-68a6-479e-ba67-b4be63b93c3b}, !- Handle
  Node 1,                                 !- Name
  {0893125f-4474-4a2e-a634-e598dc66a87b}, !- Inlet Port
  ;                                       !- Outlet Port

OS:Connection,
  {0893125f-4474-4a2e-a634-e598dc66a87b}, !- Handle
  {a91f917c-7894-4edf-b6b9-9130d6440f36}, !- Name
  {38ff26f8-511b-4128-8748-31b76082c0fc}, !- Source Object
  11,                                     !- Outlet Port
  {dd9d262d-68a6-479e-ba67-b4be63b93c3b}, !- Target Object
  2;                                      !- Inlet Port

OS:PortList,
  {90acea8a-554c-4397-84ff-d8f265c5f07f}, !- Handle
  {15364414-e95d-486e-9b03-9dc0f3d96b81}, !- Name
  {38ff26f8-511b-4128-8748-31b76082c0fc}, !- HVAC Component
  {b78d1db8-76f5-44b1-8d86-84cc7977d786}; !- Port 1

OS:PortList,
  {4c2a594c-57db-4a36-9e2b-43a280e4312b}, !- Handle
  {760c70ba-6d47-43f7-a74f-87eaca119ce0}, !- Name
  {38ff26f8-511b-4128-8748-31b76082c0fc}; !- HVAC Component

OS:Sizing:Zone,
  {123ee6ba-ac97-4fb1-a289-d68a0e3735f6}, !- Handle
  {38ff26f8-511b-4128-8748-31b76082c0fc}, !- Zone or ZoneList Name
  SupplyAirTemperature,                   !- Zone Cooling Design Supply Air Temperature Input Method
  14,                                     !- Zone Cooling Design Supply Air Temperature {C}
  11.11,                                  !- Zone Cooling Design Supply Air Temperature Difference {deltaC}
  SupplyAirTemperature,                   !- Zone Heating Design Supply Air Temperature Input Method
  40,                                     !- Zone Heating Design Supply Air Temperature {C}
  11.11,                                  !- Zone Heating Design Supply Air Temperature Difference {deltaC}
  0.0085,                                 !- Zone Cooling Design Supply Air Humidity Ratio {kg-H2O/kg-air}
  0.008,                                  !- Zone Heating Design Supply Air Humidity Ratio {kg-H2O/kg-air}
  ,                                       !- Zone Heating Sizing Factor
  ,                                       !- Zone Cooling Sizing Factor
  DesignDay,                              !- Cooling Design Air Flow Method
  ,                                       !- Cooling Design Air Flow Rate {m3/s}
  ,                                       !- Cooling Minimum Air Flow per Zone Floor Area {m3/s-m2}
  ,                                       !- Cooling Minimum Air Flow {m3/s}
  ,                                       !- Cooling Minimum Air Flow Fraction
  DesignDay,                              !- Heating Design Air Flow Method
  ,                                       !- Heating Design Air Flow Rate {m3/s}
  ,                                       !- Heating Maximum Air Flow per Zone Floor Area {m3/s-m2}
  ,                                       !- Heating Maximum Air Flow {m3/s}
  ,                                       !- Heating Maximum Air Flow Fraction
  ,                                       !- Design Zone Air Distribution Effectiveness in Cooling Mode
  ,                                       !- Design Zone Air Distribution Effectiveness in Heating Mode
  No,                                     !- Account for Dedicated Outdoor Air System
  NeutralSupplyAir,                       !- Dedicated Outdoor Air System Control Strategy
  autosize,                               !- Dedicated Outdoor Air Low Setpoint Temperature for Design {C}
  autosize;                               !- Dedicated Outdoor Air High Setpoint Temperature for Design {C}

OS:ZoneHVAC:EquipmentList,
  {64f2ece2-3c29-44ad-b534-89fb5b6170a2}, !- Handle
  Zone HVAC Equipment List 1,             !- Name
  {38ff26f8-511b-4128-8748-31b76082c0fc}, !- Thermal Zone
  {3e7cd7fe-1641-4df5-83da-582639d63b06}, !- Zone Equipment 1
  1,                                      !- Zone Equipment Cooling Sequence 1
  1;                                      !- Zone Equipment Heating or No-Load Sequence 1

OS:ThermalZone,
  {dbb5f017-7e3d-43d3-b8a4-423c33947db1}, !- Handle
  garage zone,                            !- Name
  ,                                       !- Multiplier
  ,                                       !- Ceiling Height {m}
  ,                                       !- Volume {m3}
  ,                                       !- Floor Area {m2}
  ,                                       !- Zone Inside Convection Algorithm
  ,                                       !- Zone Outside Convection Algorithm
  ,                                       !- Zone Conditioning Equipment List Name
  {c21a2fcc-d9de-4837-a057-fad61df266b2}, !- Zone Air Inlet Port List
  {9df5005a-12ce-4937-b4f7-ba1d5f55f022}, !- Zone Air Exhaust Port List
  {9ef842e7-9516-4d05-bca9-51d11cf36ffe}, !- Zone Air Node Name
  ,                                       !- Zone Return Air Node Name
  ,                                       !- Primary Daylighting Control Name
  ,                                       !- Fraction of Zone Controlled by Primary Daylighting Control
  ,                                       !- Secondary Daylighting Control Name
  ,                                       !- Fraction of Zone Controlled by Secondary Daylighting Control
  ,                                       !- Illuminance Map Name
  ,                                       !- Group Rendering Name
  ,                                       !- Thermostat Name
  No;                                     !- Use Ideal Air Loads

OS:Node,
  {1f7026c9-5b3c-470b-94e5-0ac43ab6ca2b}, !- Handle
  Node 2,                                 !- Name
  {9ef842e7-9516-4d05-bca9-51d11cf36ffe}, !- Inlet Port
  ;                                       !- Outlet Port

OS:Connection,
  {9ef842e7-9516-4d05-bca9-51d11cf36ffe}, !- Handle
  {0dde4679-f905-41ce-8545-7a9f90d62dd5}, !- Name
  {dbb5f017-7e3d-43d3-b8a4-423c33947db1}, !- Source Object
  11,                                     !- Outlet Port
  {1f7026c9-5b3c-470b-94e5-0ac43ab6ca2b}, !- Target Object
  2;                                      !- Inlet Port

OS:PortList,
  {c21a2fcc-d9de-4837-a057-fad61df266b2}, !- Handle
  {77b4b67c-03b0-4359-8ba7-6e286c3372f6}, !- Name
  {dbb5f017-7e3d-43d3-b8a4-423c33947db1}; !- HVAC Component

OS:PortList,
  {9df5005a-12ce-4937-b4f7-ba1d5f55f022}, !- Handle
  {0b72de9d-4c74-403f-ab5a-713139a77b11}, !- Name
  {dbb5f017-7e3d-43d3-b8a4-423c33947db1}; !- HVAC Component

OS:Sizing:Zone,
  {15aa3749-9109-413c-98d6-2faf1ebf15e2}, !- Handle
  {dbb5f017-7e3d-43d3-b8a4-423c33947db1}, !- Zone or ZoneList Name
  SupplyAirTemperature,                   !- Zone Cooling Design Supply Air Temperature Input Method
  14,                                     !- Zone Cooling Design Supply Air Temperature {C}
  11.11,                                  !- Zone Cooling Design Supply Air Temperature Difference {deltaC}
  SupplyAirTemperature,                   !- Zone Heating Design Supply Air Temperature Input Method
  40,                                     !- Zone Heating Design Supply Air Temperature {C}
  11.11,                                  !- Zone Heating Design Supply Air Temperature Difference {deltaC}
  0.0085,                                 !- Zone Cooling Design Supply Air Humidity Ratio {kg-H2O/kg-air}
  0.008,                                  !- Zone Heating Design Supply Air Humidity Ratio {kg-H2O/kg-air}
  ,                                       !- Zone Heating Sizing Factor
  ,                                       !- Zone Cooling Sizing Factor
  DesignDay,                              !- Cooling Design Air Flow Method
  ,                                       !- Cooling Design Air Flow Rate {m3/s}
  ,                                       !- Cooling Minimum Air Flow per Zone Floor Area {m3/s-m2}
  ,                                       !- Cooling Minimum Air Flow {m3/s}
  ,                                       !- Cooling Minimum Air Flow Fraction
  DesignDay,                              !- Heating Design Air Flow Method
  ,                                       !- Heating Design Air Flow Rate {m3/s}
  ,                                       !- Heating Maximum Air Flow per Zone Floor Area {m3/s-m2}
  ,                                       !- Heating Maximum Air Flow {m3/s}
  ,                                       !- Heating Maximum Air Flow Fraction
  ,                                       !- Design Zone Air Distribution Effectiveness in Cooling Mode
  ,                                       !- Design Zone Air Distribution Effectiveness in Heating Mode
  No,                                     !- Account for Dedicated Outdoor Air System
  NeutralSupplyAir,                       !- Dedicated Outdoor Air System Control Strategy
  autosize,                               !- Dedicated Outdoor Air Low Setpoint Temperature for Design {C}
  autosize;                               !- Dedicated Outdoor Air High Setpoint Temperature for Design {C}

OS:ZoneHVAC:EquipmentList,
  {40ccccc2-2405-47e9-a63c-549d9e26a3ba}, !- Handle
  Zone HVAC Equipment List 2,             !- Name
  {dbb5f017-7e3d-43d3-b8a4-423c33947db1}; !- Thermal Zone

OS:Space,
  {080a4686-fcdb-4ab4-96dc-3b453a6bab9f}, !- Handle
  garage space,                           !- Name
  {e12841c2-de01-48d2-8a12-269299deb28c}, !- Space Type Name
  ,                                       !- Default Construction Set Name
  ,                                       !- Default Schedule Set Name
  -0,                                     !- Direction of Relative North {deg}
  0,                                      !- X Origin {m}
  0,                                      !- Y Origin {m}
  0,                                      !- Z Origin {m}
  ,                                       !- Building Story Name
  {dbb5f017-7e3d-43d3-b8a4-423c33947db1}; !- Thermal Zone Name

OS:Surface,
  {5bee1ae5-3a57-4a21-8079-4cf4604fdf1c}, !- Handle
  Surface 1,                              !- Name
  Floor,                                  !- Surface Type
  {1d4a3e29-6b14-463a-a2fb-a723ab354af8}, !- Construction Name
  {080a4686-fcdb-4ab4-96dc-3b453a6bab9f}, !- Space Name
  Foundation,                             !- Outside Boundary Condition
  {4f200ca3-49e3-4e54-adde-eba5f44ab8f9}, !- Outside Boundary Condition Object
  NoSun,                                  !- Sun Exposure
  NoWind,                                 !- Wind Exposure
  ,                                       !- View Factor to Ground
  ,                                       !- Number of Vertices
  12.1802725844098, -3.6576, 0,           !- X,Y,Z Vertex 1 {m}
  12.1802725844098, 3.6576, 0,            !- X,Y,Z Vertex 2 {m}
  15.8378725844098, 3.6576, 0,            !- X,Y,Z Vertex 3 {m}
  15.8378725844098, -3.6576, 0;           !- X,Y,Z Vertex 4 {m}

OS:Surface,
  {2e483ac7-0d49-4d94-8174-316fa496fadf}, !- Handle
  Surface 2,                              !- Name
  Wall,                                   !- Surface Type
  {dacddbe7-b3c0-4c5d-8652-5933f0bafc63}, !- Construction Name
  {080a4686-fcdb-4ab4-96dc-3b453a6bab9f}, !- Space Name
  Surface,                                !- Outside Boundary Condition
  {1c64c71b-971c-4977-aa77-3cb709e7a290}, !- Outside Boundary Condition Object
  NoSun,                                  !- Sun Exposure
  NoWind,                                 !- Wind Exposure
  ,                                       !- View Factor to Ground
  ,                                       !- Number of Vertices
  12.1802725844098, 3.6576, 2.4384,       !- X,Y,Z Vertex 1 {m}
  12.1802725844098, 3.6576, 0,            !- X,Y,Z Vertex 2 {m}
  12.1802725844098, 0, 0,                 !- X,Y,Z Vertex 3 {m}
  12.1802725844098, 0, 2.4384;            !- X,Y,Z Vertex 4 {m}

OS:Surface,
  {5d22d784-51e9-4f24-a711-53ee91175b2b}, !- Handle
  Surface 3,                              !- Name
  Wall,                                   !- Surface Type
  {dacddbe7-b3c0-4c5d-8652-5933f0bafc63}, !- Construction Name
  {080a4686-fcdb-4ab4-96dc-3b453a6bab9f}, !- Space Name
  Surface,                                !- Outside Boundary Condition
  {6fbacc6a-9261-478d-882c-2b57b3008e40}, !- Outside Boundary Condition Object
  NoSun,                                  !- Sun Exposure
  NoWind,                                 !- Wind Exposure
  ,                                       !- View Factor to Ground
  ,                                       !- Number of Vertices
  15.8378725844098, 3.6576, 2.4384,       !- X,Y,Z Vertex 1 {m}
  15.8378725844098, 3.6576, 0,            !- X,Y,Z Vertex 2 {m}
  12.1802725844098, 3.6576, 0,            !- X,Y,Z Vertex 3 {m}
  12.1802725844098, 3.6576, 2.4384;       !- X,Y,Z Vertex 4 {m}

OS:Surface,
  {05784722-6dec-4faa-907a-6f628785b0f8}, !- Handle
  Surface 4,                              !- Name
  Wall,                                   !- Surface Type
  {4beba273-7952-4ea1-95c9-5434c118f8ae}, !- Construction Name
  {080a4686-fcdb-4ab4-96dc-3b453a6bab9f}, !- Space Name
  Outdoors,                               !- Outside Boundary Condition
  ,                                       !- Outside Boundary Condition Object
  SunExposed,                             !- Sun Exposure
  WindExposed,                            !- Wind Exposure
  ,                                       !- View Factor to Ground
  ,                                       !- Number of Vertices
  15.8378725844098, -3.6576, 2.4384,      !- X,Y,Z Vertex 1 {m}
  15.8378725844098, -3.6576, 0,           !- X,Y,Z Vertex 2 {m}
  15.8378725844098, 3.6576, 0,            !- X,Y,Z Vertex 3 {m}
  15.8378725844098, 3.6576, 2.4384;       !- X,Y,Z Vertex 4 {m}

OS:Surface,
  {0bc4bbb6-908e-4292-a05f-f4abb0ece89f}, !- Handle
  Surface 5,                              !- Name
  Wall,                                   !- Surface Type
  {4beba273-7952-4ea1-95c9-5434c118f8ae}, !- Construction Name
  {080a4686-fcdb-4ab4-96dc-3b453a6bab9f}, !- Space Name
  Outdoors,                               !- Outside Boundary Condition
  ,                                       !- Outside Boundary Condition Object
  SunExposed,                             !- Sun Exposure
  WindExposed,                            !- Wind Exposure
  ,                                       !- View Factor to Ground
  ,                                       !- Number of Vertices
  12.1802725844098, -3.6576, 2.4384,      !- X,Y,Z Vertex 1 {m}
  12.1802725844098, -3.6576, 0,           !- X,Y,Z Vertex 2 {m}
  15.8378725844098, -3.6576, 0,           !- X,Y,Z Vertex 3 {m}
  15.8378725844098, -3.6576, 2.4384;      !- X,Y,Z Vertex 4 {m}

OS:Surface,
  {f8697e97-739c-4ef8-be13-ce8001616a3a}, !- Handle
  Surface 6,                              !- Name
  RoofCeiling,                            !- Surface Type
  {51b49f32-8109-4dbe-bf01-485f0c676a5b}, !- Construction Name
  {080a4686-fcdb-4ab4-96dc-3b453a6bab9f}, !- Space Name
  Surface,                                !- Outside Boundary Condition
  {51455f20-5314-48a8-94d8-d1f697416ed9}, !- Outside Boundary Condition Object
  NoSun,                                  !- Sun Exposure
  NoWind,                                 !- Wind Exposure
  ,                                       !- View Factor to Ground
  ,                                       !- Number of Vertices
  15.8378725844098, -3.6576, 2.4384,      !- X,Y,Z Vertex 1 {m}
  15.8378725844098, 3.6576, 2.4384,       !- X,Y,Z Vertex 2 {m}
  12.1802725844098, 3.6576, 2.4384,       !- X,Y,Z Vertex 3 {m}
  12.1802725844098, -3.6576, 2.4384;      !- X,Y,Z Vertex 4 {m}

OS:SpaceType,
  {e12841c2-de01-48d2-8a12-269299deb28c}, !- Handle
  Space Type 1,                           !- Name
  ,                                       !- Default Construction Set Name
  ,                                       !- Default Schedule Set Name
  ,                                       !- Group Rendering Name
  ,                                       !- Design Specification Outdoor Air Object Name
  ,                                       !- Standards Building Type
  garage;                                 !- Standards Space Type

OS:Space,
  {63b70ae2-2080-46ad-8d37-81d9f9fa3006}, !- Handle
  living space,                           !- Name
  {ca3e84b3-973a-433a-98ce-5e2463c0dd0b}, !- Space Type Name
  ,                                       !- Default Construction Set Name
  ,                                       !- Default Schedule Set Name
  -0,                                     !- Direction of Relative North {deg}
  0,                                      !- X Origin {m}
  0,                                      !- Y Origin {m}
  0,                                      !- Z Origin {m}
  ,                                       !- Building Story Name
  {38ff26f8-511b-4128-8748-31b76082c0fc}, !- Thermal Zone Name