!- NOTE: Auto-generated from /test/osw_files/SFD_2story_CS_UA_GRG_ASHPV_FuelTanklessWH.osw

OS:Version,
  {e1a5417f-0265-414b-913d-ed51b915841e}, !- Handle
  2.7.0;                                  !- Version Identifier

OS:SimulationControl,
  {020fb81c-a39a-4840-8940-4c4503f1cfa5}, !- Handle
  ,                                       !- Do Zone Sizing Calculation
  ,                                       !- Do System Sizing Calculation
  ,                                       !- Do Plant Sizing Calculation
  No;                                     !- Run Simulation for Sizing Periods

OS:Timestep,
  {0ebf9aa6-11dc-497d-9adf-102611918c7d}, !- Handle
  6;                                      !- Number of Timesteps per Hour

OS:ShadowCalculation,
  {44d21f9e-e711-45bf-9403-c211b4213e93}, !- Handle
  20,                                     !- Calculation Frequency
  200;                                    !- Maximum Figures in Shadow Overlap Calculations

OS:SurfaceConvectionAlgorithm:Outside,
  {fc14c20f-c6ba-4212-b28f-06d8570cc331}, !- Handle
  DOE-2;                                  !- Algorithm

OS:SurfaceConvectionAlgorithm:Inside,
  {2bf3be46-93c6-4de8-a28d-40ce5b1fc168}, !- Handle
  TARP;                                   !- Algorithm

OS:ZoneCapacitanceMultiplier:ResearchSpecial,
  {829daa29-f4f8-44ad-b472-e75fc43b62bb}, !- Handle
  ,                                       !- Temperature Capacity Multiplier
  15,                                     !- Humidity Capacity Multiplier
  ;                                       !- Carbon Dioxide Capacity Multiplier

OS:RunPeriod,
  {e5b7fc17-4176-43b2-b280-604224a30822}, !- Handle
  Run Period 1,                           !- Name
  1,                                      !- Begin Month
  1,                                      !- Begin Day of Month
  12,                                     !- End Month
  31,                                     !- End Day of Month
  ,                                       !- Use Weather File Holidays and Special Days
  ,                                       !- Use Weather File Daylight Saving Period
  ,                                       !- Apply Weekend Holiday Rule
  ,                                       !- Use Weather File Rain Indicators
  ,                                       !- Use Weather File Snow Indicators
  ;                                       !- Number of Times Runperiod to be Repeated

OS:WeatherFile,
  {4c2bad5c-01f7-4fff-a71a-133bea7dacf4}, !- Handle
  Denver Intl Ap,                         !- City
  CO,                                     !- State Province Region
  USA,                                    !- Country
  TMY3,                                   !- Data Source
  725650,                                 !- WMO Number
  39.83,                                  !- Latitude {deg}
  -104.65,                                !- Longitude {deg}
  -7,                                     !- Time Zone {hr}
  1650,                                   !- Elevation {m}
  file:../tests/USA_CO_Denver_Intl_AP_725650_TMY3.epw, !- Url
  E23378AA;                               !- Checksum

OS:AdditionalProperties,
  {1fcb07d5-a489-427d-80d3-a4a949afe072}, !- Handle
  {4c2bad5c-01f7-4fff-a71a-133bea7dacf4}, !- Object Name
  EPWHeaderCity,                          !- Feature Name 1
  String,                                 !- Feature Data Type 1
  Denver Intl Ap,                         !- Feature Value 1
  EPWHeaderState,                         !- Feature Name 2
  String,                                 !- Feature Data Type 2
  CO,                                     !- Feature Value 2
  EPWHeaderCountry,                       !- Feature Name 3
  String,                                 !- Feature Data Type 3
  USA,                                    !- Feature Value 3
  EPWHeaderDataSource,                    !- Feature Name 4
  String,                                 !- Feature Data Type 4
  TMY3,                                   !- Feature Value 4
  EPWHeaderStation,                       !- Feature Name 5
  String,                                 !- Feature Data Type 5
  725650,                                 !- Feature Value 5
  EPWHeaderLatitude,                      !- Feature Name 6
  Double,                                 !- Feature Data Type 6
  39.829999999999998,                     !- Feature Value 6
  EPWHeaderLongitude,                     !- Feature Name 7
  Double,                                 !- Feature Data Type 7
  -104.65000000000001,                    !- Feature Value 7
  EPWHeaderTimezone,                      !- Feature Name 8
  Double,                                 !- Feature Data Type 8
  -7,                                     !- Feature Value 8
  EPWHeaderAltitude,                      !- Feature Name 9
  Double,                                 !- Feature Data Type 9
  5413.3858267716532,                     !- Feature Value 9
  EPWHeaderLocalPressure,                 !- Feature Name 10
  Double,                                 !- Feature Data Type 10
  0.81937567683596546,                    !- Feature Value 10
  EPWHeaderRecordsPerHour,                !- Feature Name 11
  Double,                                 !- Feature Data Type 11
  1,                                      !- Feature Value 11
  EPWDataAnnualAvgDrybulb,                !- Feature Name 12
  Double,                                 !- Feature Data Type 12
  51.575616438356228,                     !- Feature Value 12
  EPWDataAnnualMinDrybulb,                !- Feature Name 13
  Double,                                 !- Feature Data Type 13
  -2.9200000000000017,                    !- Feature Value 13
  EPWDataAnnualMaxDrybulb,                !- Feature Name 14
  Double,                                 !- Feature Data Type 14
  104,                                    !- Feature Value 14
  EPWDataCDD50F,                          !- Feature Name 15
  Double,                                 !- Feature Data Type 15
  3072.2925000000005,                     !- Feature Value 15
  EPWDataCDD65F,                          !- Feature Name 16
  Double,                                 !- Feature Data Type 16
  883.62000000000035,                     !- Feature Value 16
  EPWDataHDD50F,                          !- Feature Name 17
  Double,                                 !- Feature Data Type 17
  2497.1925000000001,                     !- Feature Value 17
  EPWDataHDD65F,                          !- Feature Name 18
  Double,                                 !- Feature Data Type 18
  5783.5200000000013,                     !- Feature Value 18
  EPWDataAnnualAvgWindspeed,              !- Feature Name 19
  Double,                                 !- Feature Data Type 19
  3.9165296803649667,                     !- Feature Value 19
  EPWDataMonthlyAvgDrybulbs,              !- Feature Name 20
  String,                                 !- Feature Data Type 20
  33.4191935483871&#4431.90142857142857&#4443.02620967741937&#4442.48624999999999&#4459.877741935483854&#4473.57574999999997&#4472.07975806451608&#4472.70008064516134&#4466.49200000000006&#4450.079112903225806&#4437.218250000000005&#4434.582177419354835, !- Feature Value 20
  EPWDataGroundMonthlyTemps,              !- Feature Name 21
  String,                                 !- Feature Data Type 21
  44.08306285945173&#4440.89570904991865&#4440.64045432632048&#4442.153016571250646&#4448.225111118704206&#4454.268919273837525&#4459.508577937551024&#4462.82777283423508&#4463.10975667174995&#4460.41014950381947&#4455.304105212311526&#4449.445696474514364, !- Feature Value 21
  EPWDataWSF,                             !- Feature Name 22
  Double,                                 !- Feature Data Type 22
  0.58999999999999997,                    !- Feature Value 22
  EPWDataMonthlyAvgDailyHighDrybulbs,     !- Feature Name 23
  String,                                 !- Feature Data Type 23
  47.41032258064516&#4446.58642857142857&#4455.15032258064517&#4453.708&#4472.80193548387098&#4488.67600000000002&#4486.1858064516129&#4485.87225806451613&#4482.082&#4463.18064516129033&#4448.73400000000001&#4448.87935483870968, !- Feature Value 23
  EPWDataMonthlyAvgDailyLowDrybulbs,      !- Feature Name 24
  String,                                 !- Feature Data Type 24
  19.347741935483874&#4419.856428571428573&#4430.316129032258065&#4431.112&#4447.41612903225806&#4457.901999999999994&#4459.063870967741934&#4460.956774193548384&#4452.352000000000004&#4438.41612903225806&#4427.002000000000002&#4423.02903225806451, !- Feature Value 24
  EPWDesignHeatingDrybulb,                !- Feature Name 25
  Double,                                 !- Feature Data Type 25
  6.8000000000000007,                     !- Feature Value 25
  EPWDesignHeatingWindspeed,              !- Feature Name 26
  Double,                                 !- Feature Data Type 26
  12,                                     !- Feature Value 26
  EPWDesignCoolingDrybulb,                !- Feature Name 27
  Double,                                 !- Feature Data Type 27
  91.760000000000005,                     !- Feature Value 27
  EPWDesignCoolingWetbulb,                !- Feature Name 28
  Double,                                 !- Feature Data Type 28
  60.079999999999998,                     !- Feature Value 28
  EPWDesignCoolingHumidityRatio,          !- Feature Name 29
  Double,                                 !- Feature Data Type 29
  0.006050392196571398,                   !- Feature Value 29
  EPWDesignCoolingWindspeed,              !- Feature Name 30
  Double,                                 !- Feature Data Type 30
  4.2000000000000002,                     !- Feature Value 30
  EPWDesignDailyTemperatureRange,         !- Feature Name 31
  Double,                                 !- Feature Data Type 31
  27.359999999999999,                     !- Feature Value 31
  EPWDesignDehumidDrybulb,                !- Feature Name 32
  Double,                                 !- Feature Data Type 32
  67.280000000000001,                     !- Feature Value 32
  EPWDesignDehumidHumidityRatio,          !- Feature Name 33
  Double,                                 !- Feature Data Type 33
  0.012295426899271008,                   !- Feature Value 33
  EPWDesignCoolingDirectNormal,           !- Feature Name 34
  Double,                                 !- Feature Data Type 34
  985,                                    !- Feature Value 34
  EPWDesignCoolingDiffuseHorizontal,      !- Feature Name 35
  Double,                                 !- Feature Data Type 35
  84;                                     !- Feature Value 35

OS:YearDescription,
  {fc250337-aecc-4d9a-8713-d0c7cf98c3ee}, !- Handle
  ,                                       !- Calendar Year
  Monday;                                 !- Day of Week for Start Day

OS:Site,
  {fdaae5c2-e807-4f50-8dce-5db110a59521}, !- Handle
  Denver Intl Ap_CO_USA,                  !- Name
  39.83,                                  !- Latitude {deg}
  -104.65,                                !- Longitude {deg}
  -7,                                     !- Time Zone {hr}
  1650,                                   !- Elevation {m}
  Suburbs;                                !- Terrain

OS:ClimateZones,
  {f848a1f7-85f0-4df5-ae61-4d2205f3a0d1}, !- Handle
  ,                                       !- Active Institution
  ,                                       !- Active Year
  ,                                       !- Climate Zone Institution Name 1
  ,                                       !- Climate Zone Document Name 1
  ,                                       !- Climate Zone Document Year 1
  ,                                       !- Climate Zone Value 1
  Building America,                       !- Climate Zone Institution Name 2
  ,                                       !- Climate Zone Document Name 2
  0,                                      !- Climate Zone Document Year 2
  Cold;                                   !- Climate Zone Value 2

OS:Site:WaterMainsTemperature,
  {dea5b100-69f5-4882-b0f4-6ec01b0ad27a}, !- Handle
  Correlation,                            !- Calculation Method
  ,                                       !- Temperature Schedule Name
  10.8753424657535,                       !- Annual Average Outdoor Air Temperature {C}
  23.1524007936508;                       !- Maximum Difference In Monthly Average Outdoor Air Temperatures {deltaC}

OS:RunPeriodControl:DaylightSavingTime,
  {4cb0ceba-6af2-432d-911c-6512d1f2a102}, !- Handle
  4/7,                                    !- Start Date
  10/26;                                  !- End Date

OS:Site:GroundTemperature:Deep,
  {1eba2b21-581e-48d0-8773-3d9edd3febd9}, !- Handle
  10.8753424657535,                       !- January Deep Ground Temperature {C}
  10.8753424657535,                       !- February Deep Ground Temperature {C}
  10.8753424657535,                       !- March Deep Ground Temperature {C}
  10.8753424657535,                       !- April Deep Ground Temperature {C}
  10.8753424657535,                       !- May Deep Ground Temperature {C}
  10.8753424657535,                       !- June Deep Ground Temperature {C}
  10.8753424657535,                       !- July Deep Ground Temperature {C}
  10.8753424657535,                       !- August Deep Ground Temperature {C}
  10.8753424657535,                       !- September Deep Ground Temperature {C}
  10.8753424657535,                       !- October Deep Ground Temperature {C}
  10.8753424657535,                       !- November Deep Ground Temperature {C}
  10.8753424657535;                       !- December Deep Ground Temperature {C}

OS:ThermalZone,
  {1a6e56af-cd46-43e8-88d9-74741f26c398}, !- Handle
  living zone,                            !- Name
  ,                                       !- Multiplier
  ,                                       !- Ceiling Height {m}
  ,                                       !- Volume {m3}
  ,                                       !- Floor Area {m2}
  ,                                       !- Zone Inside Convection Algorithm
  ,                                       !- Zone Outside Convection Algorithm
  ,                                       !- Zone Conditioning Equipment List Name
  {49a16837-cb04-4587-9be1-ce3aed3f480d}, !- Zone Air Inlet Port List
  {cb9825e6-4bef-46e5-a0a4-24a2a64df1ff}, !- Zone Air Exhaust Port List
  {2792c8fd-bd85-4e3b-ae0b-33038c6b4601}, !- Zone Air Node Name
  {09fa6494-40bd-4552-923b-444a54b3a57a}, !- Zone Return Air Port List
  ,                                       !- Primary Daylighting Control Name
  ,                                       !- Fraction of Zone Controlled by Primary Daylighting Control
  ,                                       !- Secondary Daylighting Control Name
  ,                                       !- Fraction of Zone Controlled by Secondary Daylighting Control
  ,                                       !- Illuminance Map Name
  ,                                       !- Group Rendering Name
  {61f8d6d3-bc72-4c4c-a2fc-28f6ba2289ba}, !- Thermostat Name
  No;                                     !- Use Ideal Air Loads

OS:Node,
  {adbc01c7-17fe-4c47-bd55-d85190900653}, !- Handle
  Node 1,                                 !- Name
  {2792c8fd-bd85-4e3b-ae0b-33038c6b4601}, !- Inlet Port
  ;                                       !- Outlet Port

OS:Connection,
  {2792c8fd-bd85-4e3b-ae0b-33038c6b4601}, !- Handle
  {bf0ac7df-de5a-4488-bc93-1e9b6b7a5f39}, !- Name
  {1a6e56af-cd46-43e8-88d9-74741f26c398}, !- Source Object
  11,                                     !- Outlet Port
  {adbc01c7-17fe-4c47-bd55-d85190900653}, !- Target Object
  2;                                      !- Inlet Port

OS:PortList,
  {49a16837-cb04-4587-9be1-ce3aed3f480d}, !- Handle
  {7e493c9c-93b4-44b1-83e8-6466cc5d5b49}, !- Name
  {1a6e56af-cd46-43e8-88d9-74741f26c398}, !- HVAC Component
  {0990824c-4c34-494d-aa46-b7cec6d5b298}, !- Port 1
  {591d5ea6-4b33-4e2a-9187-4659f703fbaa}; !- Port 2

OS:PortList,
  {cb9825e6-4bef-46e5-a0a4-24a2a64df1ff}, !- Handle
  {ca264711-bad4-4a36-a7df-8d73acdd286d}, !- Name
  {1a6e56af-cd46-43e8-88d9-74741f26c398}; !- HVAC Component

OS:PortList,
  {09fa6494-40bd-4552-923b-444a54b3a57a}, !- Handle
  {0743e236-8b2e-46e9-958d-42624abf2300}, !- Name
  {1a6e56af-cd46-43e8-88d9-74741f26c398}, !- HVAC Component
  {eaaf1dc7-bd82-4555-9dae-592b91d8823a}, !- Port 1
  {c2a78ec4-04f9-42dd-abca-80cffb4166ac}; !- Port 2

OS:Sizing:Zone,
  {82a01a6f-eeab-41b0-8646-00dcd3daab27}, !- Handle
  {1a6e56af-cd46-43e8-88d9-74741f26c398}, !- Zone or ZoneList Name
  SupplyAirTemperature,                   !- Zone Cooling Design Supply Air Temperature Input Method
  14,                                     !- Zone Cooling Design Supply Air Temperature {C}
  11.11,                                  !- Zone Cooling Design Supply Air Temperature Difference {deltaC}
  SupplyAirTemperature,                   !- Zone Heating Design Supply Air Temperature Input Method
  40,                                     !- Zone Heating Design Supply Air Temperature {C}
  11.11,                                  !- Zone Heating Design Supply Air Temperature Difference {deltaC}
  0.0085,                                 !- Zone Cooling Design Supply Air Humidity Ratio {kg-H2O/kg-air}
  0.008,                                  !- Zone Heating Design Supply Air Humidity Ratio {kg-H2O/kg-air}
  ,                                       !- Zone Heating Sizing Factor
  ,                                       !- Zone Cooling Sizing Factor
  DesignDay,                              !- Cooling Design Air Flow Method
  ,                                       !- Cooling Design Air Flow Rate {m3/s}
  ,                                       !- Cooling Minimum Air Flow per Zone Floor Area {m3/s-m2}
  ,                                       !- Cooling Minimum Air Flow {m3/s}
  ,                                       !- Cooling Minimum Air Flow Fraction
  DesignDay,                              !- Heating Design Air Flow Method
  ,                                       !- Heating Design Air Flow Rate {m3/s}
  ,                                       !- Heating Maximum Air Flow per Zone Floor Area {m3/s-m2}
  ,                                       !- Heating Maximum Air Flow {m3/s}
  ,                                       !- Heating Maximum Air Flow Fraction
  ,                                       !- Design Zone Air Distribution Effectiveness in Cooling Mode
  ,                                       !- Design Zone Air Distribution Effectiveness in Heating Mode
  No,                                     !- Account for Dedicated Outdoor Air System
  NeutralSupplyAir,                       !- Dedicated Outdoor Air System Control Strategy
  autosize,                               !- Dedicated Outdoor Air Low Setpoint Temperature for Design {C}
  autosize;                               !- Dedicated Outdoor Air High Setpoint Temperature for Design {C}

OS:ZoneHVAC:EquipmentList,
  {1de0fa31-2858-463f-98d4-2d5e7706f55e}, !- Handle
  Zone HVAC Equipment List 1,             !- Name
  {1a6e56af-cd46-43e8-88d9-74741f26c398}, !- Thermal Zone
  SequentialLoad,                         !- Load Distribution Scheme
  {3ab61e37-4b71-4299-a23f-2674f31f294e}, !- Zone Equipment 1
  1,                                      !- Zone Equipment Cooling Sequence 1
  1,                                      !- Zone Equipment Heating or No-Load Sequence 1
  {85312446-d55c-40d2-9c25-458abd192cde}, !- Zone Equipment 2
  2,                                      !- Zone Equipment Cooling Sequence 2
  2;                                      !- Zone Equipment Heating or No-Load Sequence 2

OS:ThermalZone,
  {933164a5-6d35-4f85-b9a4-f68f437102f1}, !- Handle
  garage zone,                            !- Name
  ,                                       !- Multiplier
  ,                                       !- Ceiling Height {m}
  ,                                       !- Volume {m3}
  ,                                       !- Floor Area {m2}
  ,                                       !- Zone Inside Convection Algorithm
  ,                                       !- Zone Outside Convection Algorithm
  ,                                       !- Zone Conditioning Equipment List Name
  {64fc4a0b-f167-48f6-9ceb-4498e0e1be27}, !- Zone Air Inlet Port List
  {cfadc119-f0fb-4d97-bd23-e468e172808a}, !- Zone Air Exhaust Port List
  {f16c3bd0-2c75-41ba-9367-9a6f3d1b8b8c}, !- Zone Air Node Name
  {33d8e80a-e7d6-4f04-bbbf-460df7d4c1a6}, !- Zone Return Air Port List
  ,                                       !- Primary Daylighting Control Name
  ,                                       !- Fraction of Zone Controlled by Primary Daylighting Control
  ,                                       !- Secondary Daylighting Control Name
  ,                                       !- Fraction of Zone Controlled by Secondary Daylighting Control
  ,                                       !- Illuminance Map Name
  ,                                       !- Group Rendering Name
  ,                                       !- Thermostat Name
  No;                                     !- Use Ideal Air Loads

OS:Node,
  {0dfd3d17-3d84-4634-8463-9e3340658bae}, !- Handle
  Node 2,                                 !- Name
  {f16c3bd0-2c75-41ba-9367-9a6f3d1b8b8c}, !- Inlet Port
  ;                                       !- Outlet Port

OS:Connection,
  {f16c3bd0-2c75-41ba-9367-9a6f3d1b8b8c}, !- Handle
  {6938d280-fba0-4c31-99f8-5a38081fa221}, !- Name
  {933164a5-6d35-4f85-b9a4-f68f437102f1}, !- Source Object
  11,                                     !- Outlet Port
  {0dfd3d17-3d84-4634-8463-9e3340658bae}, !- Target Object
  2;                                      !- Inlet Port

OS:PortList,
  {64fc4a0b-f167-48f6-9ceb-4498e0e1be27}, !- Handle
  {4ff43115-6926-47ff-9eef-c4b6d35cdfe0}, !- Name
  {933164a5-6d35-4f85-b9a4-f68f437102f1}; !- HVAC Component

OS:PortList,
  {cfadc119-f0fb-4d97-bd23-e468e172808a}, !- Handle
  {7cbf9d28-b632-412d-8523-78953bd901e1}, !- Name
  {933164a5-6d35-4f85-b9a4-f68f437102f1}; !- HVAC Component

OS:PortList,
  {33d8e80a-e7d6-4f04-bbbf-460df7d4c1a6}, !- Handle
  {71a5d5ec-4b90-46c5-ad22-d3604c7705fd}, !- Name
  {933164a5-6d35-4f85-b9a4-f68f437102f1}; !- HVAC Component

OS:Sizing:Zone,
  {7b78385b-20f3-4bae-9eaa-c85cdeef2f46}, !- Handle
  {933164a5-6d35-4f85-b9a4-f68f437102f1}, !- Zone or ZoneList Name
  SupplyAirTemperature,                   !- Zone Cooling Design Supply Air Temperature Input Method
  14,                                     !- Zone Cooling Design Supply Air Temperature {C}
  11.11,                                  !- Zone Cooling Design Supply Air Temperature Difference {deltaC}
  SupplyAirTemperature,                   !- Zone Heating Design Supply Air Temperature Input Method
  40,                                     !- Zone Heating Design Supply Air Temperature {C}
  11.11,                                  !- Zone Heating Design Supply Air Temperature Difference {deltaC}
  0.0085,                                 !- Zone Cooling Design Supply Air Humidity Ratio {kg-H2O/kg-air}
  0.008,                                  !- Zone Heating Design Supply Air Humidity Ratio {kg-H2O/kg-air}
  ,                                       !- Zone Heating Sizing Factor
  ,                                       !- Zone Cooling Sizing Factor
  DesignDay,                              !- Cooling Design Air Flow Method
  ,                                       !- Cooling Design Air Flow Rate {m3/s}
  ,                                       !- Cooling Minimum Air Flow per Zone Floor Area {m3/s-m2}
  ,                                       !- Cooling Minimum Air Flow {m3/s}
  ,                                       !- Cooling Minimum Air Flow Fraction
  DesignDay,                              !- Heating Design Air Flow Method
  ,                                       !- Heating Design Air Flow Rate {m3/s}
  ,                                       !- Heating Maximum Air Flow per Zone Floor Area {m3/s-m2}
  ,                                       !- Heating Maximum Air Flow {m3/s}
  ,                                       !- Heating Maximum Air Flow Fraction
  ,                                       !- Design Zone Air Distribution Effectiveness in Cooling Mode
  ,                                       !- Design Zone Air Distribution Effectiveness in Heating Mode
  No,                                     !- Account for Dedicated Outdoor Air System
  NeutralSupplyAir,                       !- Dedicated Outdoor Air System Control Strategy
  autosize,                               !- Dedicated Outdoor Air Low Setpoint Temperature for Design {C}
  autosize;                               !- Dedicated Outdoor Air High Setpoint Temperature for Design {C}

OS:ZoneHVAC:EquipmentList,
  {3df2c206-f012-41b5-8512-fd6fd2c36c93}, !- Handle
  Zone HVAC Equipment List 2,             !- Name
  {933164a5-6d35-4f85-b9a4-f68f437102f1}; !- Thermal Zone

OS:Space,
  {2af7f5cc-9f9a-4eac-88ca-27645c766c1a}, !- Handle
  garage space,                           !- Name
  {79749b9f-8b2f-469e-ba4a-9b14fbb77144}, !- Space Type Name
  ,                                       !- Default Construction Set Name
  ,                                       !- Default Schedule Set Name
  -0,                                     !- Direction of Relative North {deg}
  0,                                      !- X Origin {m}
  0,                                      !- Y Origin {m}
  0,                                      !- Z Origin {m}
  ,                                       !- Building Story Name
  {933164a5-6d35-4f85-b9a4-f68f437102f1}; !- Thermal Zone Name

OS:Surface,
  {50e2a00c-7afe-4180-8460-7c58631ccb24}, !- Handle
  Surface 1,                              !- Name
  Floor,                                  !- Surface Type
  {7fa55df0-a832-4b40-bdc3-c2e2ee3c51db}, !- Construction Name
  {2af7f5cc-9f9a-4eac-88ca-27645c766c1a}, !- Space Name
  Foundation,                             !- Outside Boundary Condition
  {d5b15ebe-dd25-4539-9e55-5afac242556c}, !- Outside Boundary Condition Object
  NoSun,                                  !- Sun Exposure
  NoWind,                                 !- Wind Exposure
  ,                                       !- View Factor to Ground
  ,                                       !- Number of Vertices
  12.1802725844098, -3.6576, 0,           !- X,Y,Z Vertex 1 {m}
  12.1802725844098, 3.6576, 0,            !- X,Y,Z Vertex 2 {m}
  15.8378725844098, 3.6576, 0,            !- X,Y,Z Vertex 3 {m}
  15.8378725844098, -3.6576, 0;           !- X,Y,Z Vertex 4 {m}

OS:Surface,
  {fb81d28b-6ea1-46ca-b817-5fe260191453}, !- Handle
  Surface 2,                              !- Name
  Wall,                                   !- Surface Type
  {7df6e513-fb29-4641-a5ad-fc3ffd485d98}, !- Construction Name
  {2af7f5cc-9f9a-4eac-88ca-27645c766c1a}, !- Space Name
  Surface,                                !- Outside Boundary Condition
  {54159c5c-a565-475c-b717-cca70db9c5bb}, !- Outside Boundary Condition Object
  NoSun,                                  !- Sun Exposure
  NoWind,                                 !- Wind Exposure
  ,                                       !- View Factor to Ground
  ,                                       !- Number of Vertices
  12.1802725844098, 3.6576, 2.4384,       !- X,Y,Z Vertex 1 {m}
  12.1802725844098, 3.6576, 0,            !- X,Y,Z Vertex 2 {m}
  12.1802725844098, 0, 0,                 !- X,Y,Z Vertex 3 {m}
  12.1802725844098, 0, 2.4384;            !- X,Y,Z Vertex 4 {m}

OS:Surface,
  {52d1920d-7aa1-41df-a394-66a1000d7180}, !- Handle
  Surface 3,                              !- Name
  Wall,                                   !- Surface Type
  {7df6e513-fb29-4641-a5ad-fc3ffd485d98}, !- Construction Name
  {2af7f5cc-9f9a-4eac-88ca-27645c766c1a}, !- Space Name
  Surface,                                !- Outside Boundary Condition
  {7b8f520e-80f4-4d97-a36c-18383aec6f76}, !- Outside Boundary Condition Object
  NoSun,                                  !- Sun Exposure
  NoWind,                                 !- Wind Exposure
  ,                                       !- View Factor to Ground
  ,                                       !- Number of Vertices
  15.8378725844098, 3.6576, 2.4384,       !- X,Y,Z Vertex 1 {m}
  15.8378725844098, 3.6576, 0,            !- X,Y,Z Vertex 2 {m}
  12.1802725844098, 3.6576, 0,            !- X,Y,Z Vertex 3 {m}
  12.1802725844098, 3.6576, 2.4384;       !- X,Y,Z Vertex 4 {m}

OS:Surface,
  {48daef46-7135-48b9-ad2c-8e9f404e46dc}, !- Handle
  Surface 4,                              !- Name
  Wall,                                   !- Surface Type
  {da6fd02b-fd55-4a90-931a-abee9800cc9f}, !- Construction Name
  {2af7f5cc-9f9a-4eac-88ca-27645c766c1a}, !- Space Name
  Outdoors,                               !- Outside Boundary Condition
  ,                                       !- Outside Boundary Condition Object
  SunExposed,                             !- Sun Exposure
  WindExposed,                            !- Wind Exposure
  ,                                       !- View Factor to Ground
  ,                                       !- Number of Vertices
  15.8378725844098, -3.6576, 2.4384,      !- X,Y,Z Vertex 1 {m}
  15.8378725844098, -3.6576, 0,           !- X,Y,Z Vertex 2 {m}
  15.8378725844098, 3.6576, 0,            !- X,Y,Z Vertex 3 {m}
  15.8378725844098, 3.6576, 2.4384;       !- X,Y,Z Vertex 4 {m}

OS:Surface,
  {954aaee3-4f63-4d07-a522-b0130f6df1b2}, !- Handle
  Surface 5,                              !- Name
  Wall,                                   !- Surface Type
  {da6fd02b-fd55-4a90-931a-abee9800cc9f}, !- Construction Name
  {2af7f5cc-9f9a-4eac-88ca-27645c766c1a}, !- Space Name
  Outdoors,                               !- Outside Boundary Condition